##TITLE=AK nmr
Name schenk
Code 2-cyclohexen-1-on
CAS: 930-68-7
ca. ? mg
c13_kurz.tci DMSO {C:\Bruker\av3-600\av600} nmrsu 12
##JCAMPDX= 6.0         $$ Bruker NMR JCAMP-DX V2.0
##DATA TYPE= NMR SPECTRUM
##DATA CLASS= NTUPLES
##ORIGIN= Bruker BioSpin GmbH
##OWNER= nmrsu
##LONG DATE= 2016/08/11 09:06:40+0000
$$ 1.115 TopSpin 4.1.0
$$ 2021-01-29 17:36:51.173 +0100  Homeoffice@CIERVO
$$ Compression mode = diff/dup
##.OBSERVE FREQUENCY= 150.91940830899
##.OBSERVE NUCLEUS= ^13C
##.ACQUISITION MODE= SIMULTANEOUS (DQD)
##.ACQUISITION SCHEME= undefined
##.AVERAGES= 256
##.DIGITISER RES= 21
##SPECTROMETER/DATA SYSTEM= spect
##.PULSE SEQUENCE= zgpg30
##.SOLVENT NAME= DMSO
##.SHIFT REFERENCE= INTERNAL, DMSO, 1, 239.4293
##AUDIT TRAIL= $$ (NUMBER, WHEN, WHO, WHERE, PROCESS, VERSION, WHAT)
$$ ##TITLE= Audit trail, TopSpin 4.1.0
$$ ##JCAMPDX= 5.01
$$ ##ORIGIN= Bruker BioSpin GmbH
$$ ##OWNER= Homeoffice
$$ $$ D:/Users/Homeoffice/Seafile/chemikalienlager/cyclohex-2-en-1-on_930-68-7/2/pdata/1/auditp.txt
$$ ##AUDIT TRAIL=  $$ (NUMBER, WHEN, WHO, WHERE, PROCESS, VERSION, WHAT)
(   1,<2016-08-11 11:06:40.251 +0200>,<nmrsu>,<AV3-600>,<go4>,<TopSpin 3.5.5>,
      <created by zg
	started at 2016-08-11 10:59:15.244 +0200,
	POWCHK enabled, PULCHK disabled,
       configuration hash MD5:
       39 81 26 A8 82 EA 39 1B C7 6C 77 EA DE 0A F8 5F
       data hash MD5: 64K
       1C 0C A2 92 9A EE 63 38 C3 11 62 60 C8 DA B6 DB>)
(   2,<2016-08-11 11:06:40.376 +0200>,<nmrsu>,<AV3-600>,<audit>,<TopSpin 3.5.5>,
      <user comment:
       ICON-NMR User ID: nmrsu
       data hash MD5: 64K
       1C 0C A2 92 9A EE 63 38 C3 11 62 60 C8 DA B6 DB>)
(   3,<2021-01-29 17:36:22.259 +0100>,<Homeoffice>,<CIERVO>,<proc1d>,<TopSpin 4.1.0>,
      <CAT service failure
       Start of raw data processing
       ef LB = 1 FT_mod = 6 PKNL = 1 SI = 32K 
       data hash MD5: 32K
       1B DD 28 A3 CD C0 CB 99 02 2B 5E 9C 55 A6 69 F3>)
(   4,<2021-01-29 17:36:23.437 +0100>,<Homeoffice>,<CIERVO>,<proc1d>,<TopSpin 4.1.0>,
      <CAT service failure
       apk 
       data hash MD5: 32K
       66 0D CB C9 17 31 D8 EE C0 29 08 E2 3D FB 01 01>)
(   5,<2021-01-29 17:36:25.682 +0100>,<Homeoffice>,<CIERVO>,<proc1d>,<TopSpin 4.1.0>,
      <CAT service failure
       abs n ABSG = 5 
       data hash MD5: 32K
       F3 07 58 39 BF EB 6F E8 0C 05 99 27 EE 83 CA F8>)
(   6,<2021-01-29 17:36:26.824 +0100>,<Homeoffice>,<CIERVO>,<proc1d>,<TopSpin 4.1.0>,
      <CAT service failure
       apks 
       data hash MD5: 32K
       6B 58 FF 9B F9 18 59 06 46 58 DE A5 17 83 16 DD>)
(   7,<2021-01-29 17:36:27.919 +0100>,<Homeoffice>,<CIERVO>,<proc1d>,<TopSpin 4.1.0>,
      <CAT service failure
       abs n ABSG = 5 
       data hash MD5: 32K
       86 DD 92 D3 A0 4A BB 0E DE 16 90 12 DD B2 F0 0D>)
$$ ##END=
$$ 
$$ $$ hash MD5
$$ $$ 79 FF C7 45 71 49 AE A7 C3 AC 99 C1 30 61 CD 8C
##$RELAX= 
##$BRUKER FILE EXP=cpdprg2
$$ 1 pcpd*3:180
$$   pcpd*4:0
$$   pcpd*2:180
$$   pcpd*3:0
$$   pcpd  :180
$$   pcpd*2:0
$$   pcpd*4:180
$$   pcpd*2:0
$$   pcpd*3:180
$$ 2 pcpd*3:0
$$   pcpd*4:180
$$   pcpd*2:0
$$   pcpd*3:180
$$   pcpd  :0
$$   pcpd*2:180
$$   pcpd*4:0
$$   pcpd*2:180
$$   pcpd*3:0
$$   lo to 2 times 2
$$ 3 pcpd*3:180
$$   pcpd*4:0
$$   pcpd*2:180
$$   pcpd*3:0
$$   pcpd  :180
$$   pcpd*2:0
$$   pcpd*4:180
$$   pcpd*2:0
$$   pcpd*3:180
$$   jump to 1
##$RELAX= 
##$BRUKER FILE EXP=format.temp
$$ EDIT_PAR COMMAND FILE
$$ 
$$ DI_MODE         LONG
$$ ED_ENTRY        ACQU
$$ ORDER           FILE
$$ 
$$ 
$$ HEADER		"F2 - Acquisition Parameters"
$$ T_NAME		Date_
$$ 		TYPE	R64
$$ 		CLASS	ACQU
$$ 		SUBRANGE 0.0 50000000
$$ 		REL	"Date_=itodate(DATE)"
$$ 		INV_REL	"DATE=datetoi(Date_,DATE)"
$$ 		FORMAT	"%14.0f"
$$ 		TEXT	" "
$$ END
$$ T_NAME		Time
$$ 		TYPE	R32
$$ 		CLASS	ACQU
$$ 		SUBRANGE 0.0 1000000
$$ 		REL	"Time=itotime(DATE)"
$$ 		INV_REL	"DATE=timetoi(Time,DATE)"
$$ 		FORMAT	"%14.2f h"
$$ 		TEXT	" "
$$ END
$$ NAME		INSTRUM
$$ 		TEXT	" "
$$ END
$$ NAME		PROBHD
$$ 		FORMAT	"%14.14s"
$$ 		TEXT	" "
$$ END
$$ NAME		PULPROG
$$ 		TEXT	" "
$$ END
$$ NAME		TD
$$ 		TEXT	" "
$$ END
$$ NAME		SOLVENT
$$ 		TEXT	" "
$$ END
$$ NAME		NS
$$ 		TEXT	" "
$$ END
$$ NAME		DS
$$ 		TEXT	" "
$$ END
$$ T_NAME		SWH
$$ 		TYPE	R32
$$ 		CLASS	ACQU
$$ 		SUBRANGE 0.0 1e8
$$ 		REL	"SWH=SW*SFO1"
$$ 		INV_REL "SW=SWH/SFO1"
$$ 		UNIT	"Hz"
$$ 		FORMAT	"%14.3f Hz"
$$ 		TEXT	" "
$$ END
$$ T_NAME          FIDRES
$$                 TYPE    R32
$$                 CLASS   ACQU
$$                 SUBRANGE 0.0 100000
$$                 REL     "FIDRES=2*SW*SFO1/TD"
$$                 INV_REL "TD = nextpow(2*SW*SFO1/FIDRES)"
$$ 		UNIT	"Hz"
$$ 		FORMAT	"%14.6f Hz"
$$ 		TEXT	" "
$$ END
$$ T_NAME          AQ
$$ 		TYPE	R32
$$ 		CLASS	ACQU
$$ 		SUBRANGE 0.0 1000
$$ 		REL	"AQ=aqcalc(SW,SFO1,TD,DIGTYP)"
$$ 		INV_REL	"TD=tdcalc(SW,SFO1,1.0e6*AQ,DIGTYP)"
$$ 		UNIT	"sec"
$$ 		FORMAT	"%14.7f sec"
$$ 		TEXT	" "
$$ END
$$ NAME		RG
$$ 		TEXT	" "
$$ END
$$ T_NAME          DW
$$ 		TYPE	R32
$$ 		CLASS	ACQU
$$ 		SUBRANGE 0.0 1000000
$$ 		REL	"DW=1/(2*SW*SFO1)"
$$ 		INV_REL	"SW=1000000/(2*(0.005+DW)*SFO1)"
$$ 		UNIT	"usec"
$$ 		FORMAT	"%14.3lf usec"
$$ 		TEXT	" "
$$ END
$$ NAME		DE
$$ 		FORMAT	"%14.2f usec"
$$ 		TEXT	" "
$$ END
$$ NAME		TE
$$ 		FORMAT	"%14.1f K"
$$ 		TEXT	" "
$$ END
$$ T_NAME		D1
$$ 		TYPE	R32
$$ 		CLASS	ACQU
$$ 		SUBRANGE 0.0 1e38
$$ 		REL	"D1=D[1]"
$$ 		INV_REL	"D[1]=D1"
$$ 		UNIT	"sec"
$$ 		FORMAT	"%14.8f sec"
$$ 		TEXT	" "
$$ END
$$ T_NAME		D11
$$ 		TYPE	R32
$$ 		CLASS	ACQU
$$ 		SUBRANGE 0.0 1e38
$$ 		REL	"D11=D[11]"
$$ 		INV_REL	"D[11]=D11"
$$ 		UNIT	"sec"
$$ 		FORMAT	"%14.8f sec"
$$ 		TEXT	" "
$$ END
$$ NAME		TD0
$$ 		TEXT	" "
$$ END
$$ NAME		SFO1
$$ 		FORMAT	"%14.7f MHz"
$$ 		TEXT	" "
$$ END
$$ NAME		NUC1
$$ 		NONEDIT
$$ 		TEXT	" "
$$ END
$$ T_NAME		P1
$$ 		TYPE	R32
$$ 		CLASS	ACQU
$$ 		SUBRANGE 0.0 1.0e10
$$ 		REL	"P1=P[1]"
$$ 		INV_REL	"P[1]=P1"
$$ 		UNIT	"usec"
$$ 		FORMAT	"%14.2f usec"
$$ 		TEXT	" "
$$ END
$$ T_NAME		PLW1
$$ 		TYPE	R32
$$ 		CLASS	ACQU
$$ 		REL	"PLW1=PLW[1]"
$$ 		INV_REL	"PLW[1]=PLW1"
$$ 		UNIT	"W"
$$ 		FORMAT	"%14.8f W"
$$ 		TEXT	"power PLW1 "
$$ END
$$ NAME		SFO2
$$ 		FORMAT	"%14.7f MHz"
$$ 		TEXT	" "
$$ END
$$ NAME		NUC2
$$ 		NONEDIT
$$ 		TEXT	" "
$$ END
$$ NAME		CPDPRG[2]
$$ 		TEXT	" "
$$ END
$$ T_NAME		PCPD2
$$ 		TYPE	R32
$$ 		CLASS	ACQU
$$ 		SUBRANGE 0 1e38
$$ 		REL	"PCPD2=PCPD[2]"
$$ 		INV_REL	"PCPD[2]=PCPD2"
$$ 		UNIT	"usec"
$$ 		FORMAT	"%14.2f usec"
$$ 		TEXT	" "
$$ END
$$ T_NAME		PLW2
$$ 		TYPE	R32
$$ 		CLASS	ACQU
$$ 		REL	"PLW2=PLW[2]"
$$ 		INV_REL	"PLW[2]=PLW2"
$$ 		UNIT	"W"
$$ 		FORMAT	"%14.8f W"
$$ 		TEXT	"power PLW2 "
$$ END
$$ T_NAME		PLW12
$$ 		TYPE	R32
$$ 		CLASS	ACQU
$$ 		REL	"PLW12=PLW[12]"
$$ 		INV_REL	"PLW[12]=PLW12"
$$ 		UNIT	"W"
$$ 		FORMAT	"%14.8f W"
$$ 		TEXT	"power PLW12 "
$$ END
$$ T_NAME		PLW13
$$ 		TYPE	R32
$$ 		CLASS	ACQU
$$ 		REL	"PLW13=PLW[13]"
$$ 		INV_REL	"PLW[13]=PLW13"
$$ 		UNIT	"W"
$$ 		FORMAT	"%14.8f W"
$$ 		TEXT	"power PLW13 "
$$ END
##$RELAX= 
##$BRUKER FILE EXP=fq1list
$$ O 600.132401
$$ -10000000
$$ -9929688
$$ -9859375
$$ -9789063
$$ -9718750
$$ -9648438
$$ -9578125
$$ -9507813
$$ -9437500
$$ -9367188
$$ -9296875
$$ -9226563
$$ -9156250
$$ -9085938
$$ -9015625
$$ -8945313
$$ -8875000
$$ -8804688
$$ -8734375
$$ -8664063
$$ -8593750
$$ -8523438
$$ -8453125
$$ -8382813
$$ -8312500
$$ -8242188
$$ -8171875
$$ -8101563
$$ -8031250
$$ -7960938
$$ -7890625
$$ -7820313
$$ -7750000
$$ -7679688
$$ -7609375
$$ -7539063
$$ -7468750
$$ -7398438
$$ -7328125
$$ -7257813
$$ -7187500
$$ -7117188
$$ -7046875
$$ -6976563
$$ -6906250
$$ -6835938
$$ -6765625
$$ -6695313
$$ -6625000
$$ -6554688
$$ -6484375
$$ -6414063
$$ -6343750
$$ -6273438
$$ -6203125
$$ -6132813
$$ -6062500
$$ -5992188
$$ -5921875
$$ -5851563
$$ -5781250
$$ -5710938
$$ -5640625
$$ -5570313
$$ -5500000
$$ -5429688
$$ -5359375
$$ -5289063
$$ -5218750
$$ -5148438
$$ -5078125
$$ -5007813
$$ -4937500
$$ -4867188
$$ -4796875
$$ -4726563
$$ -4656250
$$ -4585938
$$ -4515625
$$ -4445313
$$ -4375000
$$ -4304688
$$ -4234375
$$ -4164063
$$ -4093750
$$ -4023438
$$ -3953125
$$ -3882813
$$ -3812500
$$ -3742188
$$ -3671875
$$ -3601563
$$ -3531250
$$ -3460938
$$ -3390625
$$ -3320313
$$ -3250000
$$ -3179688
$$ -3109375
$$ -3039063
$$ -2968750
$$ -2898438
$$ -2828125
$$ -2757813
$$ -2687500
$$ -2617188
$$ -2546875
$$ -2476563
$$ -2406250
$$ -2335938
$$ -2265625
$$ -2195313
$$ -2125000
$$ -2054688
$$ -1984375
$$ -1914063
$$ -1843750
$$ -1773438
$$ -1703125
$$ -1632813
$$ -1562500
$$ -1492188
$$ -1421875
$$ -1351563
$$ -1281250
$$ -1210938
$$ -1140625
$$ -1070313
$$ -1000000
$$  -992157
$$  -984314
$$  -976471
$$  -968627
$$  -960784
$$  -952941
$$  -945098
$$  -937255
$$  -929412
$$  -921569
$$  -913725
$$  -905882
$$  -898039
$$  -890196
$$  -882353
$$  -874510
$$  -866667
$$  -858824
$$  -850980
$$  -843137
$$  -835294
$$  -827451
$$  -819608
$$  -811765
$$  -803922
$$  -796078
$$  -788235
$$  -780392
$$  -772549
$$  -764706
$$  -756863
$$  -749020
$$  -741176
$$  -733333
$$  -725490
$$  -717647
$$  -709804
$$  -701961
$$  -694118
$$  -686275
$$  -678431
$$  -670588
$$  -662745
$$  -654902
$$  -647059
$$  -639216
$$  -631373
$$  -623529
$$  -615686
$$  -607843
$$  -600000
$$  -592157
$$  -584314
$$  -576471
$$  -568627
$$  -560784
$$  -552941
$$  -545098
$$  -537255
$$  -529412
$$  -521569
$$  -513725
$$  -505882
$$  -498039
$$  -490196
$$  -482353
$$  -474510
$$  -466667
$$  -458824
$$  -450980
$$  -443137
$$  -435294
$$  -427451
$$  -419608
$$  -411765
$$  -403922
$$  -396078
$$  -388235
$$  -380392
$$  -372549
$$  -364706
$$  -356863
$$  -349020
$$  -341176
$$  -333333
$$  -325490
$$  -317647
$$  -309804
$$  -301961
$$  -294118
$$  -286275
$$  -278431
$$  -270588
$$  -262745
$$  -254902
$$  -247059
$$  -239216
$$  -231373
$$  -223529
$$  -215686
$$  -207843
$$  -200000
$$  -192157
$$  -184314
$$  -176471
$$  -168627
$$  -160784
$$  -152941
$$  -145098
$$  -137255
$$  -129412
$$  -121569
$$  -113725
$$  -105882
$$   -98039
$$   -90196
$$   -82353
$$   -74510
$$   -66667
$$   -58824
$$   -50980
$$   -43137
$$   -35294
$$   -27451
$$   -19608
$$   -11765
$$    -3922
$$     3922
$$    11765
$$    19608
$$    27451
$$    35294
$$    43137
$$    50980
$$    58824
$$    66667
$$    74510
$$    82353
$$    90196
$$    98039
$$   105882
$$   113725
$$   121569
$$   129412
$$   137255
$$   145098
$$   152941
$$   160784
$$   168627
$$   176471
$$   184314
$$   192157
$$   200000
$$   207843
$$   215686
$$   223529
$$   231373
$$   239216
$$   247059
$$   254902
$$   262745
$$   270588
$$   278431
$$   286275
$$   294118
$$   301961
$$   309804
$$   317647
$$   325490
$$   333333
$$   341176
$$   349020
$$   356863
$$   364706
$$   372549
$$   380392
$$   388235
$$   396078
$$   403922
$$   411765
$$   419608
$$   427451
$$   435294
$$   443137
$$   450980
$$   458824
$$   466667
$$   474510
$$   482353
$$   490196
$$   498039
$$   505882
$$   513725
$$   521569
$$   529412
$$   537255
$$   545098
$$   552941
$$   560784
$$   568627
$$   576471
$$   584314
$$   592157
$$   600000
$$   607843
$$   615686
$$   623529
$$   631373
$$   639216
$$   647059
$$   654902
$$   662745
$$   670588
$$   678431
$$   686275
$$   694118
$$   701961
$$   709804
$$   717647
$$   725490
$$   733333
$$   741176
$$   749020
$$   756863
$$   764706
$$   772549
$$   780392
$$   788235
$$   796078
$$   803922
$$   811765
$$   819608
$$   827451
$$   835294
$$   843137
$$   850980
$$   858824
$$   866667
$$   874510
$$   882353
$$   890196
$$   898039
$$   905882
$$   913725
$$   921569
$$   929412
$$   937255
$$   945098
$$   952941
$$   960784
$$   968627
$$   976471
$$   984314
$$   992157
$$  1000000
$$  1070312
$$  1140625
$$  1210937
$$  1281250
$$  1351562
$$  1421875
$$  1492187
$$  1562500
$$  1632812
$$  1703125
$$  1773437
$$  1843750
$$  1914062
$$  1984375
$$  2054687
$$  2125000
$$  2195312
$$  2265625
$$  2335937
$$  2406250
$$  2476562
$$  2546875
$$  2617187
$$  2687500
$$  2757812
$$  2828125
$$  2898437
$$  2968750
$$  3039062
$$  3109375
$$  3179687
$$  3250000
$$  3320312
$$  3390625
$$  3460937
$$  3531250
$$  3601562
$$  3671875
$$  3742187
$$  3812500
$$  3882812
$$  3953125
$$  4023437
$$  4093750
$$  4164062
$$  4234375
$$  4304687
$$  4375000
$$  4445312
$$  4515625
$$  4585937
$$  4656250
$$  4726562
$$  4796875
$$  4867187
$$  4937500
$$  5007812
$$  5078125
$$  5148437
$$  5218750
$$  5289062
$$  5359375
$$  5429687
$$  5500000
$$  5570312
$$  5640625
$$  5710937
$$  5781250
$$  5851562
$$  5921875
$$  5992187
$$  6062500
$$  6132812
$$  6203125
$$  6273437
$$  6343750
$$  6414062
$$  6484375
$$  6554687
$$  6625000
$$  6695312
$$  6765625
$$  6835937
$$  6906250
$$  6976562
$$  7046875
$$  7117187
$$  7187500
$$  7257812
$$  7328125
$$  7398437
$$  7468750
$$  7539062
$$  7609375
$$  7679687
$$  7750000
$$  7820312
$$  7890625
$$  7960937
$$  8031250
$$  8101562
$$  8171875
$$  8242187
$$  8312500
$$  8382812
$$  8453125
$$  8523437
$$  8593750
$$  8664062
$$  8734375
$$  8804687
$$  8875000
$$  8945312
$$  9015625
$$  9085937
$$  9156250
$$  9226562
$$  9296875
$$  9367187
$$  9437500
$$  9507812
$$  9578125
$$  9648437
$$  9718750
$$  9789062
$$  9859375
$$  9929687
$$ 10000000
##$RELAX= 
##$BRUKER FILE EXP=scon2
$$ ##TITLE= Parameter file, TopSpin 3.5 pl 5
$$ ##JCAMPDX= 5.0
$$ ##DATATYPE= Parameter Values
$$ ##NPOINTS= 1	$$ modification sequence number
$$ ##ORIGIN= Bruker BioSpin GmbH
$$ ##OWNER= nmrsu
$$ $$ 2016-08-11 10:59:15.182 +0200  nmrsu@AV3-600
$$ $$ C:/Bruker/av3-600/av600/AV600-1608E12/2/scon2
$$ $$ process C:\Bruker\TopSpin3.5pl5\prog\mod\go4.exe
$$ ##$BLKTR= (0..19)
$$ 3 3 3 3 3 3 3 3 3 3 3 3 3 3 3 3 3 3 3 3
$$ ##$DE1= 4.5
$$ ##$DEADC= 0.5
$$ ##$DEPA= 4.5
$$ ##$DERX= 1.5
$$ ##$FILCOR= 0
$$ ##$GRADCHAN= 0
$$ ##$GRADPRE= (0..1)
$$ 10 10
$$ ##$HD_BLKTR= (0..19)
$$ 1 1 1 1 1 1 1 1 1 1 1 1 1 1 1 1 1 1 1 1
$$ ##$HD_DE1= 5
$$ ##$HD_DEADC= 0
$$ ##$HD_DEPA= 2.5
$$ ##$HD_DERX= 0
$$ ##END=
##$RELAX= 
##$BRUKER FILE EXP=orig
$$ AK nmr
$$ Name schenk
$$ Code 2-cyclohexen-1-on
##$RELAX= 
##$BRUKER FILE EXP=prosol_History
##$RELAX= 
##$BRUKER FILE EXP=pulseprogram
$$ # 1 "C:/Bruker/TopSpin3.5pl5/exp/stan/nmr/lists/pp/zgpg30"
$$ ;zgpg30
$$ ;avance-version (12/01/11)
$$ ;1D sequence with power-gated decoupling
$$ ;using 30 degree flip angle
$$ ;
$$ ;$CLASS=HighRes
$$ ;$DIM=1D
$$ ;$TYPE=
$$ ;$SUBTYPE=
$$ ;$COMMENT=
$$ ;$RECOMMEND=y
$$ 
$$ 
$$ # 1 "C:/Bruker/TopSpin3.5pl5/exp/stan/nmr/lists/pp/Avance.incl" 1
$$ ;Avance3.incl
$$ ;   for AV III
$$ ;
$$ ;avance-version (13/06/17)
$$ ;
$$ ;$CLASS=HighRes Incl
$$ ;$COMMENT=
$$ # 169 "C:/Bruker/TopSpin3.5pl5/exp/stan/nmr/lists/pp/Avance.incl"
$$ ;$Id: Avance3.incl,v 1.10.2.2 2013/08/30 09:43:33 ber Exp $
$$ # 14 "C:/Bruker/TopSpin3.5pl5/exp/stan/nmr/lists/pp/zgpg30" 2
$$ 
$$ # 1 "C:/Bruker/TopSpin3.5pl5/exp/stan/nmr/lists/pp/Delay.incl" 1
$$ ;Delay.incl  -  include file for commonly used delays
$$ ;
$$ ;version (13/08/07)
$$ ;
$$ ;$CLASS=HighRes Incl
$$ ;$COMMENT=
$$ 
$$ # 9 "C:/Bruker/TopSpin3.5pl5/exp/stan/nmr/lists/pp/Delay.incl"
$$ ;general delays
$$ 
$$ define delay DELTA
$$ define delay DELTA1
$$ define delay DELTA2
$$ define delay DELTA3
$$ define delay DELTA4
$$ define delay DELTA5
$$ define delay DELTA6
$$ define delay DELTA7
$$ define delay DELTA8
$$ define delay DELTA9
$$ define delay DELTA10
$$ define delay DELTA11
$$ define delay DELTA12
$$ define delay DELTA13
$$ define delay DELTA14
$$ define delay DELTA15
$$ define delay DELTA16
$$ 
$$ define delay TAU
$$ define delay TAU1
$$ define delay TAU2
$$ define delay TAU3
$$ define delay TAU4
$$ define delay TAU5
$$ define delay TAU6
$$ define delay TAU7
$$ define delay TAU8
$$ define delay TAU9
$$ # 40 "C:/Bruker/TopSpin3.5pl5/exp/stan/nmr/lists/pp/Delay.incl"
$$ define delay INCR1
$$ define delay INCR2
$$ define delay INCR3
$$ define delay INCR4
$$ define delay INCR5
$$ define delay INCR6
$$ 
$$ 
$$ ;delays for centering pulses
$$ # 50 "C:/Bruker/TopSpin3.5pl5/exp/stan/nmr/lists/pp/Delay.incl"
$$ define delay CEN_HN1
$$ define delay CEN_HN2
$$ define delay CEN_HN3
$$ define delay CEN_HC1
$$ define delay CEN_HC2
$$ define delay CEN_HC3
$$ define delay CEN_HC4
$$ define delay CEN_HP1
$$ define delay CEN_HP2
$$ define delay CEN_CN1
$$ define delay CEN_CN2
$$ define delay CEN_CN3
$$ define delay CEN_CN4
$$ define delay CEN_CP1
$$ define delay CEN_CP2
$$ 
$$ 
$$ ;loop counters
$$ # 69 "C:/Bruker/TopSpin3.5pl5/exp/stan/nmr/lists/pp/Delay.incl"
$$ define loopcounter COUNTER
$$ define loopcounter SCALEF
$$ define loopcounter FACTOR1
$$ define loopcounter FACTOR2
$$ define loopcounter FACTOR3
$$ define loopcounter FACTOR4
$$ define loopcounter FACTOR5
$$ define loopcounter FACTOR6
$$ 
$$ 
$$ # 80 "C:/Bruker/TopSpin3.5pl5/exp/stan/nmr/lists/pp/Delay.incl"
$$ ;$Id: Delay.incl,v 1.14.2.1 2013/08/30 09:43:33 ber Exp $
$$ # 15 "C:/Bruker/TopSpin3.5pl5/exp/stan/nmr/lists/pp/zgpg30" 2
$$ 
$$ 
$$ # 18 "C:/Bruker/TopSpin3.5pl5/exp/stan/nmr/lists/pp/zgpg30"
$$ "d11=30m"
$$ 
$$ 
$$ "DELTA=d1-100m"
$$ # 24 "C:/Bruker/TopSpin3.5pl5/exp/stan/nmr/lists/pp/zgpg30"
$$ "acqt0=-p1*0.66/3.1416"
$$ 
$$ 
$$ # 1 "mc_line 27 file C:/Bruker/TopSpin3.5pl5/exp/stan/nmr/lists/pp/zgpg30 exp. def. part of mc cmd. before ze"
$$ ; dimension 1D; AQ_mode 
$$ define delay MCWRK
$$ define delay MCREST
$$ "MCREST = 30m - 30m"
$$ "MCWRK = 0.333333*30m"
$$ 
$$     dccorr
$$ # 27 "C:/Bruker/TopSpin3.5pl5/exp/stan/nmr/lists/pp/zgpg30"
$$ 1 ze
$$ # 1 "mc_line 27 file C:/Bruker/TopSpin3.5pl5/exp/stan/nmr/lists/pp/zgpg30 exp. def. of mc cmd. after ze"
$$ # 28 "C:/Bruker/TopSpin3.5pl5/exp/stan/nmr/lists/pp/zgpg30"
$$   d11 pl12:f2
$$ # 1 "mc_line 29 file C:/Bruker/TopSpin3.5pl5/exp/stan/nmr/lists/pp/zgpg30 exp. start label for mc cmd."
$$ 2 MCWRK  * 2 do:f2
$$ LBLF0, MCWRK 
$$   MCREST
$$ # 30 "C:/Bruker/TopSpin3.5pl5/exp/stan/nmr/lists/pp/zgpg30"
$$   10u pl13:f2
$$   d11 cpd2:f2
$$   DELTA
$$   4u do:f2
$$   10u pl12:f2
$$   100m cpd2:f2
$$   p1*0.33 ph1
$$   go=2 ph31
$$ # 1 "mc_line 38 file C:/Bruker/TopSpin3.5pl5/exp/stan/nmr/lists/pp/zgpg30 exp. mc cmd. in line"
$$   MCWRK do:f2 pl13:f2 wr #0
$$   MCWRK zd
$$   lo to LBLF0 times td0
$$ 
$$ # 39 "C:/Bruker/TopSpin3.5pl5/exp/stan/nmr/lists/pp/zgpg30"
$$ exit
$$ # 42 "C:/Bruker/TopSpin3.5pl5/exp/stan/nmr/lists/pp/zgpg30"
$$ ph1=0 2 2 0 1 3 3 1
$$ ph31=0 2 2 0 1 3 3 1
$$ 
$$ 
$$ ;pl1 : f1 channel - power level for pulse (default)
$$ ;pl12: f2 channel - power level for CPD/BB decoupling
$$ ;pl13: f2 channel - power level for second CPD/BB decoupling
$$ ;p1 : f1 channel -  90 degree high power pulse
$$ ;d1 : relaxation delay; 1-5 * T1
$$ ;d11: delay for disk I/O                             [30 msec]
$$ ;ns: 1 * n, total number of scans: NS * TD0
$$ ;cpd2: decoupling according to sequence defined by cpdprg2
$$ ;pcpd2: f2 channel - 90 degree pulse for decoupling sequence
$$ # 58 "C:/Bruker/TopSpin3.5pl5/exp/stan/nmr/lists/pp/zgpg30"
$$ ;$Id: zgpg30,v 1.13 2012/01/31 17:49:32 ber Exp $
##$RELAX= 
##$BRUKER FILE EXP=shimvalues
$$ # Thu Aug 11 11:06:40 2016
$$ #$$PROBEIDENTIFIER=Z75812_0080
$$ #$$PROBENAME=CP TCI 600S3 H-C/N-D-05 Z
$$ #$$SHIMID=292722
$$ #
$$ # Active Shim Gradients
$$ #
$$ Z           		-1754           
$$ Z2          		-757            
$$ Z3          		699             
$$ Z4          		-3544           
$$ Z5          		703             
$$ X           		-294            
$$ XZ          		5006            
$$ XZ2         		3970            
$$ (X2-Y2)     		4850            
$$ XY          		2465            
$$ Y           		-1815           
$$ YZ          		2784            
$$ YZ2         		1532            
$$ (X2-Y2)Z2   		225             
$$ XZ4         		3108            
$$ XZ3         		-133            
$$ Z6          		-4180           
$$ (X2-Y2)Z    		1866            
$$ YZ4         		403             
$$ YZ3         		-1526           
$$ XYZ2        		-191            
$$ XYZ         		4476            
$$ X3Z         		0               
$$ X3          		3679            
$$ Y3Z         		0               
$$ Y3          		-2120           
$$ Z7          		-5253           
$$ Z8          		0               
$$ XZ5         		0               
$$ YZ5         		0               
$$ (X2-Y2)Z3   		2130            
$$ (X2-Y2)Z4   		0               
$$ (X2-Y2)Z5   		0               
$$ XYZ3        		130             
$$ XYZ4        		0               
$$ XYZ5        		0               
$$ #
$$ # Lock Parameter
$$ #
$$ FIELD		-5811.518
$$ LOCKPHASE		183.285 
$$ LOCKPOWER		-20.000 
$$ LOCKGAIN		90.694  
$$ LOCKDC		-70.000 
$$ LOCKSHIFT		2.490   
$$ LOOPGAIN		5.000   
$$ LOOPTIME		0.250   
$$ LOOPFILTER		500.000 
$$ #
$$ IEEE64_VERSION_CODE 1
$$ #
$$ # Shim currents 
$$ #
$$ SHIM_SETTING [1 ]  -1417.09801466  
$$ SHIM_SETTING [2 ]  -378.19507186   
$$ SHIM_SETTING [3 ]  4283.36031598   
$$ SHIM_SETTING [4 ]  6673.67465221   
$$ SHIM_SETTING [5 ]  -500.69578105   
$$ SHIM_SETTING [6 ]  -3393.44673837  
$$ SHIM_SETTING [7 ]  -12414.36539528 
$$ SHIM_SETTING [8 ]  -3688.74755209  
$$ SHIM_SETTING [9 ]  -3575.27899698  
$$ SHIM_SETTING [10]  -2081.18362374  
$$ SHIM_SETTING [11]  0.00000000      
$$ SHIM_SETTING [12]  -2120.09300000  
$$ SHIM_SETTING [13]  -2120.09300000  
$$ SHIM_SETTING [14]  1784.36100000   
$$ SHIM_SETTING [15]  10480.14916972  
$$ SHIM_SETTING [16]  707.89816972    
$$ SHIM_SETTING [17]  -3435.15086517  
$$ SHIM_SETTING [18]  -8497.24113484  
$$ SHIM_SETTING [19]  1839.85386497   
$$ SHIM_SETTING [20]  254.24934974    
$$ SHIM_SETTING [21]  6801.72500000   
$$ SHIM_SETTING [22]  -76.71000000    
$$ SHIM_SETTING [23]  4654.90900000   
$$ SHIM_SETTING [24]  4716.93300000   
$$ SHIM_SETTING [25]  4385.50100000   
$$ SHIM_SETTING [26]  -707.72300000   
$$ SHIM_SETTING [27]  1784.36100000   
$$ SHIM_SETTING [28]  1542.77576605   
$$ SHIM_SETTING [29]  2143.83700000   
$$ SHIM_SETTING [30]  -116.08500000   
$$ SHIM_SETTING [31]  -348.58259552   
$$ SHIM_SETTING [32]  -1265.90123395  
$$ SHIM_SETTING [33]  5975.59500000   
$$ SHIM_SETTING [34]  -3167.26500000  
$$ SHIM_SETTING [35]  5677.50800000   
$$ SHIM_SETTING [36]  -468.22600000   
$$ SHIM_SETTING [37]  -428.97309432   
$$ SHIM_SETTING [38]  -1599.76254862  
$$ SHIM_SETTING [39]  -6068.21740448  
$$ SHIM_SETTING [40]  0.00000000      
##$RELAX= 
##$BRUKER FILE EXP=uxnmr.par
$$ ##TITLE= Parameter file, TopSpin 3.5 pl 5
$$ ##JCAMPDX= 5.0
$$ ##DATATYPE= Parameter Values
$$ ##NPOINTS= 344	$$ modification sequence number
$$ ##ORIGIN= Bruker BioSpin GmbH
$$ ##OWNER= nmrsu
$$ $$ 2016-08-09 19:10:39.905 +0200  nmrsu@AV3-600
$$ $$ C:/Bruker/TopSpin3.5pl5/conf/instr/spect/uxnmr.par
$$ $$ process C:\Bruker\TopSpin3.5pl5\prog\mod\cfserverav3.exe
$$ ##$ACB= 0
$$ ##$ACBTAT= (0..23)
$$ 0 72 88 50 88 50 0 0 0 0 0 0 0 0 0 0 0 0 0 0 0 0 0 0
$$ ##$ACBTBA= (0..23)
$$ 0 0 0 0 0 0 0 0 0 0 0 0 0 0 0 0 0 0 0 0 0 0 0 0
$$ ##$ACBTBLK= (0..23)
$$ 0 34 33 0 35 1 0 0 0 0 0 0 0 0 0 0 0 0 0 0 0 0 0 0
$$ ##$ACBTCTL= (0..23)
$$ 0 6 6 6 6 6 0 0 0 0 0 0 0 0 0 0 0 0 0 0 0 0 0 0
$$ ##$ACBTDI= (0..23)
$$ 0 -1779670023 -1779670023 -1779670023 -1779670024 -1779670252 0 0 0 0 0
$$ 0 0 0 0 0 0 0 0 0 0 0 0 0
$$ ##$ACBTDM= (0..23)
$$ 0 25 10 10 10 10 0 0 0 0 0 0 0 0 0 0 0 0 0 0 0 0 0 0
$$ ##$ACBTFHI= (0..23)
$$ 0 600 365 92 365 93 0 0 0 0 0 0 0 0 0 0 0 0 0 0 0 0 0 0
$$ ##$ACBTFL= (0..23)
$$ 0 248 248 88 248 8 0 0 0 0 0 0 0 0 0 0 0 0 0 0 0 0 0 0
$$ ##$ACBTFLO= (0..23)
$$ 0 180 6 30 6 91 0 0 0 0 0 0 0 0 0 0 0 0 0 0 0 0 0 0
$$ ##$ACBTINP= (0..23)
$$ 0 2 1 16 3 0 0 0 0 0 0 0 0 0 0 0 0 0 0 0 0 0 0 0
$$ ##$ACBTOUT= (0..23)
$$ 0 1 2 3 1 1 0 0 0 0 0 0 0 0 0 0 0 0 0 0 0 0 0 0
$$ ##$ACBTPO= (0..23)
$$ 0 100000 300000 150000 300000 5000 0 0 0 0 0 0 0 0 0 0 0 0 0 0 0 0 0 0
$$ ##$ACBTPW= (0..23)
$$ 0 100 100 5 100 1000 0 0 0 0 0 0 0 0 0 0 0 0 0 0 0 0 0 0
$$ ##$ACBTSB= (0..23)
$$ 0 0 0 0 0 0 0 0 0 0 0 0 0 0 0 0 0 0 0 0 0 0 0 0
$$ ##$ACBTSDT= (0..23)
$$ 0 2 2 2 2 2 0 0 0 0 0 0 0 0 0 0 0 0 0 0 0 0 0 0
$$ ##$ACBTY= <no>
$$ ##$AMPDFLT= no
$$ ##$AQSBDCH= (0..95)
$$ 0 0 0 0 0 0 0 0 255 255 255 255 255 255 255 255 255 255 255 255 255 255
$$ 255 255 255 255 255 255 255 255 255 255 255 255 255 255 255 255 255 255
$$ 255 255 255 255 255 255 255 255 255 255 255 255 255 255 255 255 255 255
$$ 255 255 255 255 255 255 255 255 255 255 255 255 255 255 255 255 255 255
$$ 255 255 255 255 255 255 255 255 255 255 255 255 255 255 255 255 255 255
$$ 255 255
$$ ##$AQSBDHW= (0..95)
$$ 4 1 8 8 8 0 0 0 255 255 255 255 255 255 255 255 255 255 255 255 255 255
$$ 255 255 255 255 255 255 255 255 255 255 255 255 255 255 255 255 255 255
$$ 255 255 255 255 255 255 255 255 255 255 255 255 255 255 255 255 255 255
$$ 255 255 255 255 255 255 255 255 255 255 255 255 255 255 255 255 255 255
$$ 255 255 255 255 255 255 255 255 255 255 255 255 255 255 255 255 255 255
$$ 255 255
$$ ##$AQSBDID= (0..95)
$$ 82 88 83 83 83 80 66 66 255 255 255 255 255 255 255 255 255 255 255 255
$$ 255 255 255 255 255 255 255 255 255 255 255 255 255 255 255 255 255 255
$$ 255 255 255 255 255 255 255 255 255 255 255 255 255 255 255 255 255 255
$$ 255 255 255 255 255 255 255 255 255 255 255 255 255 255 255 255 255 255
$$ 255 255 255 255 255 255 255 255 255 255 255 255 255 255 255 255 255 255
$$ 255 255 255 255
$$ ##$AQSBDNO= (0..95)
$$ 1 1 1 2 3 1 1 1 255 255 255 255 255 255 255 255 255 255 255 255 255 255
$$ 255 255 255 255 255 255 255 255 255 255 255 255 255 255 255 255 255 255
$$ 255 255 255 255 255 255 255 255 255 255 255 255 255 255 255 255 255 255
$$ 255 255 255 255 255 255 255 255 255 255 255 255 255 255 255 255 255 255
$$ 255 255 255 255 255 255 255 255 255 255 255 255 255 255 255 255 255 255
$$ 255 255
$$ ##$AQSBDSL= (0..95)
$$ 2 3 4 5 6 21 255 1 255 255 255 255 255 255 255 255 255 255 255 255 255
$$ 255 255 255 255 255 255 255 255 255 255 255 255 255 255 255 255 255 255
$$ 255 255 255 255 255 255 255 255 255 255 255 255 255 255 255 255 255 255
$$ 255 255 255 255 255 255 255 255 255 255 255 255 255 255 255 255 255 255
$$ 255 255 255 255 255 255 255 255 255 255 255 255 255 255 255 255 255 255
$$ 255 255 255
$$ ##$AQSBDTY= (0..95)
$$ 66 192 25 25 25 207 209 7 255 255 255 255 255 255 255 255 255 255 255 255
$$ 255 255 255 255 255 255 255 255 255 255 255 255 255 255 255 255 255 255
$$ 255 255 255 255 255 255 255 255 255 255 255 255 255 255 255 255 255 255
$$ 255 255 255 255 255 255 255 255 255 255 255 255 255 255 255 255 255 255
$$ 255 255 255 255 255 255 255 255 255 255 255 255 255 255 255 255 255 255
$$ 255 255 255 255
$$ ##$AQSBUAD= (0..95)
$$ 16 52 36 37 38 33 32 32 255 255 255 255 255 255 255 255 255 255 255 255
$$ 255 255 255 255 255 255 255 255 255 255 255 255 255 255 255 255 255 255
$$ 255 255 255 255 255 255 255 255 255 255 255 255 255 255 255 255 255 255
$$ 255 255 255 255 255 255 255 255 255 255 255 255 255 255 255 255 255 255
$$ 255 255 255 255 255 255 255 255 255 255 255 255 255 255 255 255 255 255
$$ 255 255 255 255
$$ ##$AQSECL= (0..95)
$$ 5 2 2 2 2 10 3 255 255 255 255 255 255 255 255 255 255 255 255 255 255
$$ 255 255 255 255 255 255 255 255 255 255 255 255 255 255 255 255 255 255
$$ 255 255 255 255 255 255 255 255 255 255 255 255 255 255 255 255 255 255
$$ 255 255 255 255 255 255 255 255 255 255 255 255 255 255 255 255 255 255
$$ 255 255 255 255 255 255 255 255 255 255 255 255 255 255 255 255 255 255
$$ 255 255 255
$$ ##$AQSECLS= (0..95)
$$ 0 2 7 7 7 0 2 255 255 255 255 255 255 255 255 255 255 255 255 255 255 255
$$ 255 255 255 255 255 255 255 255 255 255 255 255 255 255 255 255 255 255
$$ 255 255 255 255 255 255 255 255 255 255 255 255 255 255 255 255 255 255
$$ 255 255 255 255 255 255 255 255 255 255 255 255 255 255 255 255 255 255
$$ 255 255 255 255 255 255 255 255 255 255 255 255 255 255 255 255 255 255
$$ 255 255
$$ ##$AQSETH1= <no>
$$ ##$AQSETH2= <no>
$$ ##$AQSSPLT= no
$$ ##$ATT19F= (0..1)
$$ 0 0
$$ ##$ATT1H= (0..1)
$$ 0 0
$$ ##$ATT3H= (0..1)
$$ 0 0
$$ ##$ATTX= (0..1)
$$ 0 0
$$ ##$ATTY= (0..1)
$$ 0 0
$$ ##$ATTZ= (0..1)
$$ 0 0
$$ ##$BACSAIR= yes
$$ ##$BACSCAP= 60
$$ ##$BACSDEL= 10
$$ ##$BACSFCM= no
$$ ##$BACSOPT= <>
$$ ##$BACSTY= <tty04>
$$ ##$BARPTY= <no>
$$ ##$BFREQ= 600.13
$$ ##$BGAETH= (0..9)
$$ <no> <no> <no> <no> <no> <no> <no> <no> <no> <no>
$$ ##$BIRDS= yes
$$ ##$BMPC= 0
$$ ##$BMPCTY= <no>
$$ ##$BPSUTY= <no>
$$ ##$BSMS= 2
$$ ##$BSMS19FLock= no
$$ ##$BSMSETH= <149.236.99.20>
$$ ##$BSMSTY= <no>
$$ ##$BgaChFac2= (0..7)
$$ 0 0 0 0 0 0 0 0
$$ ##$BgaChMap= (0..7)
$$ 0 0 0 0 0 0 0 0
$$ ##$BgaChMaxv= (0..7)
$$ 0 0 0 0 0 0 0 0
$$ ##$BgaChRouting= (0..63)
$$ 0 0 0 0 0 0 0 0 0 0 0 0 0 0 0 0 0 0 0 0 0 0 0 0 0 0 0 0 0 0 0 0 0 0 0 0
$$ 0 0 0 0 0 0 0 0 0 0 0 0 0 0 0 0 0 0 0 0 0 0 0 0 0 0 0 0
$$ ##$BgaChShimMap= (0..7)
$$ 0 0 0 0 0 0 0 0
$$ ##$BgaChShimMaxv= (0..7)
$$ 0 0 0 0 0 0 0 0
$$ ##$Bla01Eth= <149.236.99.254>
$$ ##$Bla01Nam= <BLAX300 E 6-365MHZ INR>
$$ ##$Bla01PN= <W1345092>
$$ ##$Bla01SN= <0421>
$$ ##$Bla02Eth= <149.236.99.253>
$$ ##$Bla02Nam= <BLAXH2H300/100/150 E 200-600MHZ>
$$ ##$Bla02PN= <W1345096>
$$ ##$Bla02SN= <0666>
$$ ##$Bla03Eth= <149.236.99.20>
$$ ##$Bla03Nam= <BSMS/2 LOCK TRANSCEIVER 600>
$$ ##$Bla03PN= <Z109890>
$$ ##$Bla03SN= <00158>
$$ ##$Bla04Eth= <no>
$$ ##$Bla04Nam= <>
$$ ##$Bla04PN= <>
$$ ##$Bla04SN= <>
$$ ##$Bla05Eth= <no>
$$ ##$Bla05Nam= <>
$$ ##$Bla05PN= <>
$$ ##$Bla05SN= <>
$$ ##$Bla06Eth= <no>
$$ ##$Bla06Nam= <>
$$ ##$Bla06PN= <>
$$ ##$Bla06SN= <>
$$ ##$Bla07Eth= <no>
$$ ##$Bla07Nam= <>
$$ ##$Bla07PN= <>
$$ ##$Bla07SN= <>
$$ ##$Bla08Eth= <no>
$$ ##$Bla08Nam= <>
$$ ##$Bla08PN= <>
$$ ##$Bla08SN= <>
$$ ##$BlaEth= (0..9)
$$ <149.236.99.249> <149.236.99.248> <149.236.99.20> <no> <no> <no> <no> <no>
$$ <> <>
$$ ##$BlaNam= (0..9)
$$ <BLAXH2H300/100/150 E 200-600MHZ > <BLAX300 E 6-365MHZ INR> <BSMS/2 LOCK TRANSCEIVER 600>
$$ <> <> <> <> <> <> <>
$$ ##$BlaPN= (0..9)
$$ <W1345096> <W1345092> <Z109890> <> <> <> <> <> <> <>
$$ ##$BlaSN= (0..9)
$$ <0666> <0421> <00158> <> <> <> <> <> <> <>
$$ ##$BsmsAuxEth= <no>
$$ ##$CFASMOD= (0..7)
$$ 1 1 1 1 1 1 1 1
$$ ##$CFASMUL= (0..7)
$$ 1 1 1 1 1 1 1 1
$$ ##$CNFTXDR= (0..7)
$$ 6 6 6 0 0 0 0 0
$$ ##$COMDIG2= 0
$$ ##$CPDBTY= <no>
$$ ##$CRCOTY= <tty05>
$$ ##$CSW1= (0..31)
$$ 2 2 0 16 3 3 0 0 0 0 0 0 0 0 0 0 0 0 0 0 0 0 0 0 0 0 0 0 0 0 0 0
$$ ##$CSW2= (0..31)
$$ 1 1 0 0 0 0 0 0 0 0 0 0 0 0 0 0 0 0 0 0 0 0 0 0 0 0 0 0 0 0 0 0
$$ ##$CSWNUM= (0..7)
$$ 4 3 1 0 0 0 0 0
$$ ##$Ctb1Eth= <no>
$$ ##$CubeEth= (0..7)
$$ <no> <no> <no> <no> <no> <no> <no> <no>
$$ ##$DATSTAT= no
$$ ##$DIGI140= (0..7)
$$ 0 0 0 0 0 0 0 0
$$ ##$DIGIB12= (0..7)
$$ 0 0 0 0 0 0 0 0
$$ ##$DIGIB16= (0..7)
$$ 0 0 0 0 0 0 0 0
$$ ##$DIGIFA= (0..7)
$$ 0 0 0 0 0 0 0 0
$$ ##$DIGIFOURIER= 0
$$ ##$DIGIHA= (0..7)
$$ 0 0 0 0 0 0 0 0
$$ ##$DIGIHAF= (0..7)
$$ 0 0 0 0 0 0 0 0
$$ ##$DIGIHRD= (0..7)
$$ 0 0 0 0 0 0 0 0
$$ ##$DIGIIA= (0..7)
$$ 0 0 0 0 0 0 0 0
$$ ##$DIGIO16= (0..7)
$$ 0 0 0 0 0 0 0 0
$$ ##$DIGISA= (0..7)
$$ 0 0 0 0 0 0 0 0
$$ ##$DIGISAF= (0..7)
$$ 0 0 0 0 0 0 0 0
$$ ##$DIGISL= (0..7)
$$ 0 0 0 0 0 0 0 0
$$ ##$DIGITYI= (0..7)
$$ 0 0 0 0 0 0 0 0
$$ ##$DIGITYP= (0..7)
$$ 0 0 0 0 0 0 0 0
$$ ##$DIGITZ= 0
$$ ##$DPPFAC= 1
$$ ##$DRMSETH= <no>
$$ ##$DRU= yes
$$ ##$DRUETH= (0..33)
$$ <no> <149.236.99.89> <no> <no> <no> <no> <no> <no> <no> <no> <no> <no>
$$ <no> <no> <no> <no> <no> <no> <no> <no> <no> <no> <no> <no> <no> <no> <no>
$$ <no> <no> <no> <no> <no> <no> <>
$$ ##$Description= <Avance III 600>
$$ ##$DppType= 0
$$ ##$FCUMEM= (0..7)
$$ 16777208 16777208 16777208 0 0 0 0 0
$$ ##$FCUPAL= (0..7)
$$ 0 0 0 0 0 0 0 0
$$ ##$FGSVTY= <no>
$$ ##$FQMIX= 0
$$ ##$FUNCMOD= <>
$$ ##$FourPeriBdEth= <no>
$$ ##$FourShimBdEth= <no>
$$ ##$FourierPicsCon= no
$$ ##$GCUTYPE= 10
$$ ##$GCUTYPE2= 0
$$ ##$GPREDEL= 0
$$ ##$GPSCUTY= <no>
$$ ##$GRADRES= 5
$$ ##$GTUTY= <no>
$$ ##$GcConn= (0..1)
$$ 1 0
$$ ##$GradAmpGain= (0..7)
$$ 0 0 0 0 0 0 0 0
$$ ##$GradAmpMaxCurX= (0..7)
$$ 0 0 0 0 0 0 0 0
$$ ##$GradAmpMaxCurY= (0..7)
$$ 0 0 0 0 0 0 0 0
$$ ##$GradAmpMaxCurZ= (0..7)
$$ 9.99999904632568 0 0 0 0 0 0 0
$$ ##$GradAmpName= (0..7)
$$ <GAB in BSMS> <> <> <> <> <> <> <>
$$ ##$GradAmpPN= (0..7)
$$ <> <> <> <> <> <> <> <>
$$ ##$GradAmpSN= (0..7)
$$ <> <> <> <> <> <> <> <>
$$ ##$GradAmpType= (0..7)
$$ 2 0 0 0 0 0 0 0
$$ ##$GradPowClkCtrl= 0
$$ ##$GradPowClkTime= 0
$$ ##$GradPowImax= 0
$$ ##$GradPowType= 0
$$ ##$GradPowVmax= 0
$$ ##$HDIETH= (0..5)
$$ <> <no> <no> <no> <no> <>
$$ ##$HFAC= 3
$$ ##$HPCU= 0
$$ ##$HPCUTY= <no>
$$ ##$HPTXLP= (0..3)
$$ -1 -1 -1 -1
$$ ##$HPTXPI= (0..3)
$$ 0 0 0 0
$$ ##$HPTXPO= (0..3)
$$ 0 0 0 0
$$ ##$HPTXTY= (0..3)
$$ 0 0 0 0
$$ ##$HpprCoverType= 1
$$ ##$IF451= 0
$$ ##$IFREQ= 1
$$ ##$INJPTY= <no>
$$ ##$INTFPR= 0
$$ ##$IPSOETH= <149.236.99.251>
$$ ##$IPSOTYPE= 1
$$ ##$LDUETH= (0..0)
$$ <no>
$$ ##$LOCKCONF= <DLM>
$$ ##$LOCKTY= <no>
$$ ##$LOCSWID= 0
$$ ##$LOCSWIF= 0
$$ ##$LVDSSPLITETH= (0..5)
$$ <> <no> <no> <no> <no> <>
$$ ##$Location= <Universitaet Mainz>
$$ ##$M2FAC= 0
$$ ##$MAS= 0
$$ ##$MASETIME= 10
$$ ##$MASITIME= 10
$$ ##$MASTY= <no>
$$ ##$MAS_CT= 5
$$ ##$MAS_SG= 0
$$ ##$MAS_TO= 0
$$ ##$MEMPRM= 0
$$ ##$MHFAC= 0
$$ ##$MXFAC= 0
$$ ##$MasEth= <no>
$$ ##$NAMPD= (0..17)
$$ <> <1H LNA> <XBB19F 2HS> <XBB19F 2HS> <13C> <15N> <2H> <> <> <> <> <> <>
$$ <> <> <> <> <>
$$ ##$NFCU= 3
$$ ##$NFRED= 0
$$ ##$NMRCH= 2
$$ ##$NMRMEM= 16384
$$ ##$NPSGU= 0
$$ ##$NRCU= 1
$$ ##$NROUT= 0
$$ ##$NSGU= 3
$$ ##$OrderNo= <10029758>
$$ ##$PAMPF1= (0..15)
$$ 75 24 64 64 80 80 96 0 0 0 0 0 0 0 0 0
$$ ##$PAMPF2= (0..15)
$$ 0 0 0 0 0 0 0 0 0 0 0 0 0 0 0 0
$$ ##$PAMPF3= (0..15)
$$ 0 0 0 0 0 0 0 0 0 0 0 0 0 0 0 0
$$ ##$PAMPF4= (0..15)
$$ 0 0 0 0 0 0 0 0 0 0 0 0 0 0 0 0
$$ ##$PAMPF5= (0..15)
$$ 0 0 0 0 0 0 0 0 0 0 0 0 0 0 0 0
$$ ##$PAMPF6= (0..15)
$$ 0 0 0 0 0 0 0 0 0 0 0 0 0 0 0 0
$$ ##$PAMPF7= (0..15)
$$ 0 0 0 0 0 0 0 0 0 0 0 0 0 0 0 0
$$ ##$PAMPF8= (0..15)
$$ 0 0 0 0 0 0 0 0 0 0 0 0 0 0 0 0
$$ ##$PH4= 0
$$ ##$PHF4TY= <no>
$$ ##$POWCHK= yes
$$ ##$PRAMD1= (0..7)
$$ 2 0 0 536870912 0 0 0 0
$$ ##$PRAMD10= (0..7)
$$ 0 0 0 0 0 0 0 0
$$ ##$PRAMD11= (0..7)
$$ 0 0 0 0 0 0 0 0
$$ ##$PRAMD12= (0..7)
$$ 0 0 0 0 0 0 0 0
$$ ##$PRAMD13= (0..7)
$$ 0 0 0 0 0 0 0 0
$$ ##$PRAMD14= (0..7)
$$ 0 0 0 0 0 0 0 0
$$ ##$PRAMD15= (0..7)
$$ 0 0 0 0 0 0 0 0
$$ ##$PRAMD16= (0..7)
$$ 0 0 0 0 0 0 0 0
$$ ##$PRAMD17= (0..7)
$$ 0 0 0 0 0 0 0 0
$$ ##$PRAMD18= (0..7)
$$ 0 0 0 0 0 0 0 0
$$ ##$PRAMD19= (0..7)
$$ 0 0 0 0 0 0 0 0
$$ ##$PRAMD2= (0..7)
$$ 2147483644 2131230719 2147483647 603979775 0 0 0 0
$$ ##$PRAMD20= (0..7)
$$ 0 0 0 0 0 0 0 0
$$ ##$PRAMD21= (0..7)
$$ 0 0 0 0 0 0 0 0
$$ ##$PRAMD3= (0..7)
$$ 2147483644 2131230719 2147483647 603979775 0 0 0 0
$$ ##$PRAMD4= (0..7)
$$ 16777216 0 0 536870912 0 0 0 0
$$ ##$PRAMD5= (0..7)
$$ 0 0 4 536870912 0 0 0 0
$$ ##$PRAMD6= (0..7)
$$ 0 1048576 0 536870912 0 1048576 0 536870912
$$ ##$PRAMD7= (0..7)
$$ 0 0 0 0 0 0 0 0
$$ ##$PRAMD8= (0..7)
$$ 0 0 0 0 0 0 0 0
$$ ##$PRAMD9= (0..7)
$$ 0 0 0 0 0 0 0 0
$$ ##$PRAMLED= (0..1)
$$ 15 15
$$ ##$PRAMP= (0..9)
$$ <> <tty10> <no> <no> <no> <no> <no> <no> <no> <>
$$ ##$PRAMPTP= 1
$$ ##$PREEMPTYPE= 0
$$ ##$PREPTY= <no>
$$ ##$PREREC= (0..15)
$$ 0 1 1 1 1 1 1 0 0 0 0 0 0 0 0 0
$$ ##$PRESHLD= 0
$$ ##$PTS160= -1
$$ ##$PTSA2X= (0..7)
$$ 0 0 0 0 0 0 0 0
$$ ##$PTSF2X= (0..7)
$$ 0 0 0 0 0 0 0 0
$$ ##$PTSFMX= (0..19)
$$ 643.52499 643.52499 643.52499 0 0 0 0 0 0 0 0 0 0 0 0 0 0 0 0 0
$$ ##$PULCHK= no
$$ ##$PerMagATempSens= no
$$ ##$PerMagEth= <no>
$$ ##$PerMagFluxSens= no
$$ ##$PerMagMTempSens= no
$$ ##$PramDutyCycPerc= (0..15)
$$ 2 2 2 2 2 2 0 0 0 0 0 0 0 0 0 0
$$ ##$PramPeakPowerW= (0..15)
$$ 100 500 500 500 500 500 0 0 0 0 0 0 0 0 0 0
$$ ##$PramPowerSwitch= (0..15)
$$ 0 0 0 0 0 0 0 0 0 0 0 0 0 0 0 0
$$ ##$PramPulWidthMs= (0..15)
$$ 0.02 0.1 0.1 0.1 0.1 0.1 0 0 0 0 0 0 0 0 0 0
$$ ##$PreampMod01PN= <Z003462>
$$ ##$PreampMod01SN= <00785>
$$ ##$PreampMod02PN= <Z003506>
$$ ##$PreampMod02SN= <00942>
$$ ##$PreampMod03PN= <Z003506>
$$ ##$PreampMod03SN= <00943>
$$ ##$PreampMod04PN= <Z003524>
$$ ##$PreampMod04SN= <00674>
$$ ##$PreampMod05PN= <Z003530>
$$ ##$PreampMod05SN= <00672>
$$ ##$PreampMod06PN= <Z003473>
$$ ##$PreampMod06SN= <00811>
$$ ##$PreampMod07PN= <>
$$ ##$PreampMod07SN= <>
$$ ##$PreampMod08PN= <>
$$ ##$PreampMod08SN= <>
$$ ##$PreampMod09PN= <>
$$ ##$PreampMod09SN= <>
$$ ##$PreampMod10PN= <>
$$ ##$PreampMod10SN= <>
$$ ##$PreampMod11PN= <>
$$ ##$PreampMod11SN= <>
$$ ##$PreampMod12PN= <>
$$ ##$PreampMod12SN= <>
$$ ##$PreampMod13PN= <>
$$ ##$PreampMod13SN= <>
$$ ##$PreampMod14PN= <>
$$ ##$PreampMod14SN= <>
$$ ##$PreampMod15PN= <>
$$ ##$PreampMod15SN= <>
$$ ##$PreampMod16PN= <>
$$ ##$PreampMod16SN= <>
$$ ##$PreampModBisDat= (0..15)
$$ 20110222 20110217 20110217 20110513 20110614 20110120 0 0 0 0 0 0 0 0 0
$$ 0
$$ ##$PreampModPN= (0..17)
$$ <Z003462> <Z003506> <Z003506> <Z003524> <Z003530> <Z003473> <> <> <> <>
$$ <> <> <> <> <> <> <> <>
$$ ##$PreampModSN= (0..17)
$$ <00785> <00942> <00943> <00674> <00672> <00811> <> <> <> <> <> <> <> <>
$$ <> <> <> <>
$$ ##$ProdigyEth= <no>
$$ ##$RCUCDS= (0..7)
$$ 0 0 0 0 0 0 0 0
$$ ##$RCUCFS= (0..7)
$$ 0 0 0 0 0 0 0 0
$$ ##$RCUCSS= (0..7)
$$ 0 0 0 0 0 0 0 0
$$ ##$RCUI2C1= (0..7)
$$ 0 0 0 0 0 0 0 0
$$ ##$RCUI2C2= (0..7)
$$ 0 0 0 0 0 0 0 0
$$ ##$RCUI2C3= (0..7)
$$ 0 0 0 0 0 0 0 0
$$ ##$RCUI2C4= (0..7)
$$ 0 0 0 0 0 0 0 0
$$ ##$RCUI2C5= (0..7)
$$ 0 0 0 0 0 0 0 0
$$ ##$RCUI2C6= (0..7)
$$ 0 0 0 0 0 0 0 0
$$ ##$RCUI2C7= (0..7)
$$ 0 0 0 0 0 0 0 0
$$ ##$RCUI2C8= (0..7)
$$ 0 0 0 0 0 0 0 0
$$ ##$RDCU= 0
$$ ##$RFSINPUT= (0..1)
$$ 0 0
$$ ##$RFSVTY= <no>
$$ ##$RGTYPE= (0..31)
$$ 9 0 0 0 0 0 0 0 0 0 0 0 0 0 0 0 0 0 0 0 0 0 0 0 0 0 0 0 0 0 0 0
$$ ##$RG_max= (0..31)
$$ 2050 -1 -1 -1 -1 -1 -1 -1 -1 -1 -1 -1 -1 -1 -1 -1 -1 -1 -1 -1 -1 -1 -1
$$ -1 -1 -1 -1 -1 -1 -1 -1 -1
$$ ##$RG_min= (0..31)
$$ 0.25 -1 -1 -1 -1 -1 -1 -1 -1 -1 -1 -1 -1 -1 -1 -1 -1 -1 -1 -1 -1 -1 -1
$$ -1 -1 -1 -1 -1 -1 -1 -1 -1
$$ ##$RG_tab1= (0..255)
$$ 0.25 0.28 0.32 0.35 0.4 0.44 0.5 0.56 0.64 0.7 0.8 0.89 1 1.12 1.28 1.4
$$ 1.6 1.78 2 2.25 2.56 2.8 3.2 3.56 4 4.5 5 5.6 6.35 7.12 8 9 10 11.3 12.7
$$ 14.2 16 18 20.2 22.6 25.4 28.5 32 36 40.3 45.2 50.8 57 64 71.8 80.6 90.5
$$ 101 114 128 144 161 181 203 228 256 287 322 362 406 456 512 575 645 724
$$ 812 912 1030 1150 1290 1440 1620 1820 2050 -1 -1 -1 -1 -1 -1 -1 -1 -1 -1
$$ -1 -1 -1 -1 -1 -1 -1 -1 -1 -1 -1 -1 -1 -1 -1 -1 -1 -1 -1 -1 -1 -1 -1 -1
$$ -1 -1 -1 -1 -1 -1 -1 -1 -1 -1 -1 -1 -1 -1 -1 -1 -1 -1 -1 -1 -1 -1 -1 -1
$$ -1 -1 -1 -1 -1 -1 -1 -1 -1 -1 -1 -1 -1 -1 -1 -1 -1 -1 -1 -1 -1 -1 -1 -1
$$ -1 -1 -1 -1 -1 -1 -1 -1 -1 -1 -1 -1 -1 -1 -1 -1 -1 -1 -1 -1 -1 -1 -1 -1
$$ -1 -1 -1 -1 -1 -1 -1 -1 -1 -1 -1 -1 -1 -1 -1 -1 -1 -1 -1 -1 -1 -1 -1 -1
$$ -1 -1 -1 -1 -1 -1 -1 -1 -1 -1 -1 -1 -1 -1 -1 -1 -1 -1 -1 -1 -1 -1 -1 -1
$$ -1 -1 -1 -1 -1 -1 -1 -1 -1 -1 -1 -1 -1 -1 -1 -1 -1 -1 -1 -1 -1 -1 -1
$$ ##$RG_tab2= (0..255)
$$ -1 -1 -1 -1 -1 -1 -1 -1 -1 -1 -1 -1 -1 -1 -1 -1 -1 -1 -1 -1 -1 -1 -1 -1
$$ -1 -1 -1 -1 -1 -1 -1 -1 -1 -1 -1 -1 -1 -1 -1 -1 -1 -1 -1 -1 -1 -1 -1 -1
$$ -1 -1 -1 -1 -1 -1 -1 -1 -1 -1 -1 -1 -1 -1 -1 -1 -1 -1 -1 -1 -1 -1 -1 -1
$$ -1 -1 -1 -1 -1 -1 -1 -1 -1 -1 -1 -1 -1 -1 -1 -1 -1 -1 -1 -1 -1 -1 -1 -1
$$ -1 -1 -1 -1 -1 -1 -1 -1 -1 -1 -1 -1 -1 -1 -1 -1 -1 -1 -1 -1 -1 -1 -1 -1
$$ -1 -1 -1 -1 -1 -1 -1 -1 -1 -1 -1 -1 -1 -1 -1 -1 -1 -1 -1 -1 -1 -1 -1 -1
$$ -1 -1 -1 -1 -1 -1 -1 -1 -1 -1 -1 -1 -1 -1 -1 -1 -1 -1 -1 -1 -1 -1 -1 -1
$$ -1 -1 -1 -1 -1 -1 -1 -1 -1 -1 -1 -1 -1 -1 -1 -1 -1 -1 -1 -1 -1 -1 -1 -1
$$ -1 -1 -1 -1 -1 -1 -1 -1 -1 -1 -1 -1 -1 -1 -1 -1 -1 -1 -1 -1 -1 -1 -1 -1
$$ -1 -1 -1 -1 -1 -1 -1 -1 -1 -1 -1 -1 -1 -1 -1 -1 -1 -1 -1 -1 -1 -1 -1 -1
$$ -1 -1 -1 -1 -1 -1 -1 -1 -1 -1 -1 -1 -1 -1 -1 -1
$$ ##$RG_tab3= (0..255)
$$ -1 -1 -1 -1 -1 -1 -1 -1 -1 -1 -1 -1 -1 -1 -1 -1 -1 -1 -1 -1 -1 -1 -1 -1
$$ -1 -1 -1 -1 -1 -1 -1 -1 -1 -1 -1 -1 -1 -1 -1 -1 -1 -1 -1 -1 -1 -1 -1 -1
$$ -1 -1 -1 -1 -1 -1 -1 -1 -1 -1 -1 -1 -1 -1 -1 -1 -1 -1 -1 -1 -1 -1 -1 -1
$$ -1 -1 -1 -1 -1 -1 -1 -1 -1 -1 -1 -1 -1 -1 -1 -1 -1 -1 -1 -1 -1 -1 -1 -1
$$ -1 -1 -1 -1 -1 -1 -1 -1 -1 -1 -1 -1 -1 -1 -1 -1 -1 -1 -1 -1 -1 -1 -1 -1
$$ -1 -1 -1 -1 -1 -1 -1 -1 -1 -1 -1 -1 -1 -1 -1 -1 -1 -1 -1 -1 -1 -1 -1 -1
$$ -1 -1 -1 -1 -1 -1 -1 -1 -1 -1 -1 -1 -1 -1 -1 -1 -1 -1 -1 -1 -1 -1 -1 -1
$$ -1 -1 -1 -1 -1 -1 -1 -1 -1 -1 -1 -1 -1 -1 -1 -1 -1 -1 -1 -1 -1 -1 -1 -1
$$ -1 -1 -1 -1 -1 -1 -1 -1 -1 -1 -1 -1 -1 -1 -1 -1 -1 -1 -1 -1 -1 -1 -1 -1
$$ -1 -1 -1 -1 -1 -1 -1 -1 -1 -1 -1 -1 -1 -1 -1 -1 -1 -1 -1 -1 -1 -1 -1 -1
$$ -1 -1 -1 -1 -1 -1 -1 -1 -1 -1 -1 -1 -1 -1 -1 -1
$$ ##$RG_tab4= (0..255)
$$ -1 -1 -1 -1 -1 -1 -1 -1 -1 -1 -1 -1 -1 -1 -1 -1 -1 -1 -1 -1 -1 -1 -1 -1
$$ -1 -1 -1 -1 -1 -1 -1 -1 -1 -1 -1 -1 -1 -1 -1 -1 -1 -1 -1 -1 -1 -1 -1 -1
$$ -1 -1 -1 -1 -1 -1 -1 -1 -1 -1 -1 -1 -1 -1 -1 -1 -1 -1 -1 -1 -1 -1 -1 -1
$$ -1 -1 -1 -1 -1 -1 -1 -1 -1 -1 -1 -1 -1 -1 -1 -1 -1 -1 -1 -1 -1 -1 -1 -1
$$ -1 -1 -1 -1 -1 -1 -1 -1 -1 -1 -1 -1 -1 -1 -1 -1 -1 -1 -1 -1 -1 -1 -1 -1
$$ -1 -1 -1 -1 -1 -1 -1 -1 -1 -1 -1 -1 -1 -1 -1 -1 -1 -1 -1 -1 -1 -1 -1 -1
$$ -1 -1 -1 -1 -1 -1 -1 -1 -1 -1 -1 -1 -1 -1 -1 -1 -1 -1 -1 -1 -1 -1 -1 -1
$$ -1 -1 -1 -1 -1 -1 -1 -1 -1 -1 -1 -1 -1 -1 -1 -1 -1 -1 -1 -1 -1 -1 -1 -1
$$ -1 -1 -1 -1 -1 -1 -1 -1 -1 -1 -1 -1 -1 -1 -1 -1 -1 -1 -1 -1 -1 -1 -1 -1
$$ -1 -1 -1 -1 -1 -1 -1 -1 -1 -1 -1 -1 -1 -1 -1 -1 -1 -1 -1 -1 -1 -1 -1 -1
$$ -1 -1 -1 -1 -1 -1 -1 -1 -1 -1 -1 -1 -1 -1 -1 -1
$$ ##$RG_tab5= (0..255)
$$ -1 -1 -1 -1 -1 -1 -1 -1 -1 -1 -1 -1 -1 -1 -1 -1 -1 -1 -1 -1 -1 -1 -1 -1
$$ -1 -1 -1 -1 -1 -1 -1 -1 -1 -1 -1 -1 -1 -1 -1 -1 -1 -1 -1 -1 -1 -1 -1 -1
$$ -1 -1 -1 -1 -1 -1 -1 -1 -1 -1 -1 -1 -1 -1 -1 -1 -1 -1 -1 -1 -1 -1 -1 -1
$$ -1 -1 -1 -1 -1 -1 -1 -1 -1 -1 -1 -1 -1 -1 -1 -1 -1 -1 -1 -1 -1 -1 -1 -1
$$ -1 -1 -1 -1 -1 -1 -1 -1 -1 -1 -1 -1 -1 -1 -1 -1 -1 -1 -1 -1 -1 -1 -1 -1
$$ -1 -1 -1 -1 -1 -1 -1 -1 -1 -1 -1 -1 -1 -1 -1 -1 -1 -1 -1 -1 -1 -1 -1 -1
$$ -1 -1 -1 -1 -1 -1 -1 -1 -1 -1 -1 -1 -1 -1 -1 -1 -1 -1 -1 -1 -1 -1 -1 -1
$$ -1 -1 -1 -1 -1 -1 -1 -1 -1 -1 -1 -1 -1 -1 -1 -1 -1 -1 -1 -1 -1 -1 -1 -1
$$ -1 -1 -1 -1 -1 -1 -1 -1 -1 -1 -1 -1 -1 -1 -1 -1 -1 -1 -1 -1 -1 -1 -1 -1
$$ -1 -1 -1 -1 -1 -1 -1 -1 -1 -1 -1 -1 -1 -1 -1 -1 -1 -1 -1 -1 -1 -1 -1 -1
$$ -1 -1 -1 -1 -1 -1 -1 -1 -1 -1 -1 -1 -1 -1 -1 -1
$$ ##$RG_tab6= (0..255)
$$ -1 -1 -1 -1 -1 -1 -1 -1 -1 -1 -1 -1 -1 -1 -1 -1 -1 -1 -1 -1 -1 -1 -1 -1
$$ -1 -1 -1 -1 -1 -1 -1 -1 -1 -1 -1 -1 -1 -1 -1 -1 -1 -1 -1 -1 -1 -1 -1 -1
$$ -1 -1 -1 -1 -1 -1 -1 -1 -1 -1 -1 -1 -1 -1 -1 -1 -1 -1 -1 -1 -1 -1 -1 -1
$$ -1 -1 -1 -1 -1 -1 -1 -1 -1 -1 -1 -1 -1 -1 -1 -1 -1 -1 -1 -1 -1 -1 -1 -1
$$ -1 -1 -1 -1 -1 -1 -1 -1 -1 -1 -1 -1 -1 -1 -1 -1 -1 -1 -1 -1 -1 -1 -1 -1
$$ -1 -1 -1 -1 -1 -1 -1 -1 -1 -1 -1 -1 -1 -1 -1 -1 -1 -1 -1 -1 -1 -1 -1 -1
$$ -1 -1 -1 -1 -1 -1 -1 -1 -1 -1 -1 -1 -1 -1 -1 -1 -1 -1 -1 -1 -1 -1 -1 -1
$$ -1 -1 -1 -1 -1 -1 -1 -1 -1 -1 -1 -1 -1 -1 -1 -1 -1 -1 -1 -1 -1 -1 -1 -1
$$ -1 -1 -1 -1 -1 -1 -1 -1 -1 -1 -1 -1 -1 -1 -1 -1 -1 -1 -1 -1 -1 -1 -1 -1
$$ -1 -1 -1 -1 -1 -1 -1 -1 -1 -1 -1 -1 -1 -1 -1 -1 -1 -1 -1 -1 -1 -1 -1 -1
$$ -1 -1 -1 -1 -1 -1 -1 -1 -1 -1 -1 -1 -1 -1 -1 -1
$$ ##$RG_tab7= (0..255)
$$ -1 -1 -1 -1 -1 -1 -1 -1 -1 -1 -1 -1 -1 -1 -1 -1 -1 -1 -1 -1 -1 -1 -1 -1
$$ -1 -1 -1 -1 -1 -1 -1 -1 -1 -1 -1 -1 -1 -1 -1 -1 -1 -1 -1 -1 -1 -1 -1 -1
$$ -1 -1 -1 -1 -1 -1 -1 -1 -1 -1 -1 -1 -1 -1 -1 -1 -1 -1 -1 -1 -1 -1 -1 -1
$$ -1 -1 -1 -1 -1 -1 -1 -1 -1 -1 -1 -1 -1 -1 -1 -1 -1 -1 -1 -1 -1 -1 -1 -1
$$ -1 -1 -1 -1 -1 -1 -1 -1 -1 -1 -1 -1 -1 -1 -1 -1 -1 -1 -1 -1 -1 -1 -1 -1
$$ -1 -1 -1 -1 -1 -1 -1 -1 -1 -1 -1 -1 -1 -1 -1 -1 -1 -1 -1 -1 -1 -1 -1 -1
$$ -1 -1 -1 -1 -1 -1 -1 -1 -1 -1 -1 -1 -1 -1 -1 -1 -1 -1 -1 -1 -1 -1 -1 -1
$$ -1 -1 -1 -1 -1 -1 -1 -1 -1 -1 -1 -1 -1 -1 -1 -1 -1 -1 -1 -1 -1 -1 -1 -1
$$ -1 -1 -1 -1 -1 -1 -1 -1 -1 -1 -1 -1 -1 -1 -1 -1 -1 -1 -1 -1 -1 -1 -1 -1
$$ -1 -1 -1 -1 -1 -1 -1 -1 -1 -1 -1 -1 -1 -1 -1 -1 -1 -1 -1 -1 -1 -1 -1 -1
$$ -1 -1 -1 -1 -1 -1 -1 -1 -1 -1 -1 -1 -1 -1 -1 -1
$$ ##$RG_tab8= (0..255)
$$ -1 -1 -1 -1 -1 -1 -1 -1 -1 -1 -1 -1 -1 -1 -1 -1 -1 -1 -1 -1 -1 -1 -1 -1
$$ -1 -1 -1 -1 -1 -1 -1 -1 -1 -1 -1 -1 -1 -1 -1 -1 -1 -1 -1 -1 -1 -1 -1 -1
$$ -1 -1 -1 -1 -1 -1 -1 -1 -1 -1 -1 -1 -1 -1 -1 -1 -1 -1 -1 -1 -1 -1 -1 -1
$$ -1 -1 -1 -1 -1 -1 -1 -1 -1 -1 -1 -1 -1 -1 -1 -1 -1 -1 -1 -1 -1 -1 -1 -1
$$ -1 -1 -1 -1 -1 -1 -1 -1 -1 -1 -1 -1 -1 -1 -1 -1 -1 -1 -1 -1 -1 -1 -1 -1
$$ -1 -1 -1 -1 -1 -1 -1 -1 -1 -1 -1 -1 -1 -1 -1 -1 -1 -1 -1 -1 -1 -1 -1 -1
$$ -1 -1 -1 -1 -1 -1 -1 -1 -1 -1 -1 -1 -1 -1 -1 -1 -1 -1 -1 -1 -1 -1 -1 -1
$$ -1 -1 -1 -1 -1 -1 -1 -1 -1 -1 -1 -1 -1 -1 -1 -1 -1 -1 -1 -1 -1 -1 -1 -1
$$ -1 -1 -1 -1 -1 -1 -1 -1 -1 -1 -1 -1 -1 -1 -1 -1 -1 -1 -1 -1 -1 -1 -1 -1
$$ -1 -1 -1 -1 -1 -1 -1 -1 -1 -1 -1 -1 -1 -1 -1 -1 -1 -1 -1 -1 -1 -1 -1 -1
$$ -1 -1 -1 -1 -1 -1 -1 -1 -1 -1 -1 -1 -1 -1 -1 -1
$$ ##$RG_tabA= (0..255)
$$ 0.25 0.28 0.32 0.35 0.4 0.44 0.5 0.56 0.64 0.7 0.8 0.89 1 1.12 1.28 1.4
$$ 1.6 1.78 2 2.25 2.56 2.8 3.2 3.56 4 4.5 5 5.6 6.35 7.12 8 9 10 11.3 12.7
$$ 14.2 16 18 20.2 22.6 25.4 28.5 32 36 40.3 45.2 50.8 57 64 71.8 80.6 90.5
$$ 101 114 128 144 161 181 203 228 256 287 322 362 406 456 512 575 645 724
$$ 812 912 1030 1150 1290 1440 1620 1820 2050 -1 -1 -1 -1 -1 -1 -1 -1 -1 -1
$$ -1 -1 -1 -1 -1 -1 -1 -1 -1 -1 -1 -1 -1 -1 -1 -1 -1 -1 -1 -1 -1 -1 -1 -1
$$ -1 -1 -1 -1 -1 -1 -1 -1 -1 -1 -1 -1 -1 -1 -1 -1 -1 -1 -1 -1 -1 -1 -1 -1
$$ -1 -1 -1 -1 -1 -1 -1 -1 -1 -1 -1 -1 -1 -1 -1 -1 -1 -1 -1 -1 -1 -1 -1 -1
$$ -1 -1 -1 -1 -1 -1 -1 -1 -1 -1 -1 -1 -1 -1 -1 -1 -1 -1 -1 -1 -1 -1 -1 -1
$$ -1 -1 -1 -1 -1 -1 -1 -1 -1 -1 -1 -1 -1 -1 -1 -1 -1 -1 -1 -1 -1 -1 -1 -1
$$ -1 -1 -1 -1 -1 -1 -1 -1 -1 -1 -1 -1 -1 -1 -1 -1 -1 -1 -1 -1 -1 -1 -1 -1
$$ -1 -1 -1 -1 -1 -1 -1 -1 -1 -1 -1 -1 -1 -1 -1 -1 -1 -1 -1 -1 -1 -1 -1
$$ ##$ROBOTTY= <no>
$$ ##$ROUT14= (0..7)
$$ 0 0 0 0 0 0 0 0
$$ ##$ROUTER= -1
$$ ##$RX22TY= <no>
$$ ##$RXFMAX= (0..7)
$$ 647.5 -1 -1 -1 -1 -1 -1 -1
$$ ##$RXFMIN= (0..7)
$$ 5 -1 -1 -1 -1 -1 -1 -1
$$ ##$RXINTLV= (0..7)
$$ 1 0 0 0 0 0 0 0
$$ ##$RXMSTY= <no>
$$ ##$RockSwitchEth= <no>
$$ ##$SCMTY= <no>
$$ ##$SGUC1= (0..15)
$$ 17 18 33 0 0 0 0 0 0 0 0 0 0 0 0 0
$$ ##$SGUC2= (0..15)
$$ 34 256 20 0 0 0 0 0 0 0 0 0 0 0 0 0
$$ ##$SLCBCONF= <SHNV>
$$ ##$SPECTR= 10
$$ ##$SY2FLAG= 0
$$ ##$SYNCTRIG= 11
$$ ##$SamChgEth= (0..3)
$$ <no> <no> <no> <no>
$$ ##$Sgu1PowerLevels= (0..7)
$$ 0 0 0 0 0 0 0 0
$$ ##$Sgu2PowerLevels= (0..7)
$$ 0 0 0 0 0 0 0 0
$$ ##$Sgu3PowerLevels= (0..7)
$$ 0 0 0 0 0 0 0 0
$$ ##$Sgu4PowerLevels= (0..7)
$$ 0 0 0 0 0 0 0 0
$$ ##$Sgu5PowerLevels= (0..7)
$$ 0 0 0 0 0 0 0 0
$$ ##$Sgu6PowerLevels= (0..7)
$$ 0 0 0 0 0 0 0 0
$$ ##$Sgu7PowerLevels= (0..7)
$$ 0 0 0 0 0 0 0 0
$$ ##$Sgu8PowerLevels= (0..7)
$$ 0 0 0 0 0 0 0 0
$$ ##$SguType= 2
$$ ##$ShimMaxVal= 32760
$$ ##$ShimPow1Ch2Sh= (0..38)
$$ 0 0 0 0 0 0 0 0 0 0 0 0 0 0 0 0 0 0 0 0 0 0 0 0 0 0 0 0 0 0 0 0 0 0 0 0
$$ 0 0 0
$$ ##$ShimPow1Imax= (0..38)
$$ 0 0 0 0 0 0 0 0 0 0 0 0 0 0 0 0 0 0 0 0 0 0 0 0 0 0 0 0 0 0 0 0 0 0 0 0
$$ 0 0 0
$$ ##$ShimPow1NChan= 0
$$ ##$ShimPow1TotIMax= 0
$$ ##$ShimPow1Vmax= (0..38)
$$ 0 0 0 0 0 0 0 0 0 0 0 0 0 0 0 0 0 0 0 0 0 0 0 0 0 0 0 0 0 0 0 0 0 0 0 0
$$ 0 0 0
$$ ##$ShimPow2Ch2Sh= (0..38)
$$ 0 0 0 0 0 0 0 0 0 0 0 0 0 0 0 0 0 0 0 0 0 0 0 0 0 0 0 0 0 0 0 0 0 0 0 0
$$ 0 0 0
$$ ##$ShimPow2Imax= (0..38)
$$ 0 0 0 0 0 0 0 0 0 0 0 0 0 0 0 0 0 0 0 0 0 0 0 0 0 0 0 0 0 0 0 0 0 0 0 0
$$ 0 0 0
$$ ##$ShimPow2NChan= 0
$$ ##$ShimPow2TotIMax= 0
$$ ##$ShimPow2Vmax= (0..38)
$$ 0 0 0 0 0 0 0 0 0 0 0 0 0 0 0 0 0 0 0 0 0 0 0 0 0 0 0 0 0 0 0 0 0 0 0 0
$$ 0 0 0
$$ ##$ShimPow3Ch2Sh= (0..38)
$$ 0 0 0 0 0 0 0 0 0 0 0 0 0 0 0 0 0 0 0 0 0 0 0 0 0 0 0 0 0 0 0 0 0 0 0 0
$$ 0 0 0
$$ ##$ShimPow3Imax= (0..38)
$$ 0 0 0 0 0 0 0 0 0 0 0 0 0 0 0 0 0 0 0 0 0 0 0 0 0 0 0 0 0 0 0 0 0 0 0 0
$$ 0 0 0
$$ ##$ShimPow3NChan= 0
$$ ##$ShimPow3TotIMax= 0
$$ ##$ShimPow3Vmax= (0..38)
$$ 0 0 0 0 0 0 0 0 0 0 0 0 0 0 0 0 0 0 0 0 0 0 0 0 0 0 0 0 0 0 0 0 0 0 0 0
$$ 0 0 0
$$ ##$ShimPow4Ch2Sh= (0..38)
$$ 0 0 0 0 0 0 0 0 0 0 0 0 0 0 0 0 0 0 0 0 0 0 0 0 0 0 0 0 0 0 0 0 0 0 0 0
$$ 0 0 0
$$ ##$ShimPow4Imax= (0..38)
$$ 0 0 0 0 0 0 0 0 0 0 0 0 0 0 0 0 0 0 0 0 0 0 0 0 0 0 0 0 0 0 0 0 0 0 0 0
$$ 0 0 0
$$ ##$ShimPow4NChan= 0
$$ ##$ShimPow4TotIMax= 0
$$ ##$ShimPow4Vmax= (0..38)
$$ 0 0 0 0 0 0 0 0 0 0 0 0 0 0 0 0 0 0 0 0 0 0 0 0 0 0 0 0 0 0 0 0 0 0 0 0
$$ 0 0 0
$$ ##$ShimPowMaxUA= (0..63)
$$ 130000 130000 130000 130000 130000 130000 130000 130000 130000 130000 130000
$$ 130000 130000 130000 130000 130000 130000 130000 130000 130000 130000 130000
$$ 130000 130000 130000 130000 130000 130000 130000 130000 130000 130000 130000
$$ 130000 130000 130000 130000 130000 130000 130000 0 0 0 0 0 0 0 0 0 0 0
$$ 0 0 0 0 0 0 0 0 0 0 0 0 0
$$ ##$ShimPowMaxUC= (0..63)
$$ 130000 130000 130000 130000 130000 130000 130000 130000 130000 130000 130000
$$ 130000 130000 130000 130000 130000 130000 130000 130000 130000 130000 130000
$$ 130000 130000 130000 130000 130000 130000 130000 130000 130000 130000 130000
$$ 130000 130000 130000 130000 130000 130000 130000 0 0 0 0 0 0 0 0 0 0 0
$$ 0 0 0 0 0 0 0 0 0 0 0 0 0
$$ ##$ShimPowMaxUG= (0..63)
$$ 524287 524287 524287 524287 524287 524287 524287 524287 524287 524287 524287
$$ 524287 524287 524287 524287 524287 524287 524287 524287 524287 524287 524287
$$ 524287 524287 524287 524287 524287 524287 524287 524287 524287 524287 524287
$$ 524287 524287 524287 524287 524287 524287 0 0 0 0 0 0 0 0 0 0 0 0 0 0 0
$$ 0 0 0 0 0 0 0 0 0 0
$$ ##$ShimPowNum= 0
$$ ##$ShimPowRcbType= 3
$$ ##$ShimPowRes= (0..63)
$$ 1e-020 1e-020 1e-020 1e-020 1e-020 1e-020 1e-020 1e-020 1e-020 1e-020 1e-020
$$ 1e-020 1e-020 1e-020 1e-020 1e-020 1e-020 1e-020 1e-020 1e-020 1e-020 1e-020
$$ 1e-020 1e-020 1e-020 1e-020 1e-020 1e-020 1e-020 1e-020 1e-020 1e-020 1e-020
$$ 1e-020 1e-020 1e-020 1e-020 1e-020 1e-020 1e-020 0 0 0 0 0 0 0 0 0 0 0
$$ 0 0 0 0 0 0 0 0 0 0 0 0 0
$$ ##$ShimPowRng0= (0..63)
$$ 1 1 1 1 1 1 1 1 1 1 1 1 1 1 1 1 1 1 1 1 1 1 1 1 1 1 1 1 1 1 1 1 1 1 1 1
$$ 1 1 1 1 0 0 0 0 0 0 0 0 0 0 0 0 0 0 0 0 0 0 0 0 0 0 0 0
$$ ##$ShimPowRng1= (0..63)
$$ 1 1 1 1 1 1 1 1 1 1 1 1 1 1 1 1 1 1 1 1 1 1 1 1 1 1 1 1 1 1 1 1 1 1 1 1
$$ 1 1 1 1 0 0 0 0 0 0 0 0 0 0 0 0 0 0 0 0 0 0 0 0 0 0 0 0
$$ ##$ShimPowRng2= (0..63)
$$ 1 1 1 1 1 1 1 1 1 1 1 1 1 1 1 1 1 1 1 1 1 1 1 1 1 1 1 1 1 1 1 1 1 1 1 1
$$ 1 1 1 1 0 0 0 0 0 0 0 0 0 0 0 0 0 0 0 0 0 0 0 0 0 0 0 0
$$ ##$ShimPowRng3= (0..63)
$$ 1 1 1 1 1 1 1 1 1 1 1 1 1 1 1 1 1 1 1 1 1 1 1 1 1 1 1 1 1 1 1 1 1 1 1 1
$$ 1 1 1 1 0 0 0 0 0 0 0 0 0 0 0 0 0 0 0 0 0 0 0 0 0 0 0 0
$$ ##$ShimPowType1= 0
$$ ##$ShimPowType2= 0
$$ ##$ShimPowType3= 0
$$ ##$ShimPowType4= 0
$$ ##$ShimSysFunc= (0..63)
$$ 1 2 3 4 5 6 7 8 9 10 0 37 38 35 16 15 14 13 12 11 28 27 26 25 24 23 36
$$ 22 30 29 20 21 34 33 32 31 17 18 19 0 0 0 0 0 0 0 0 0 0 0 0 0 0 0 0 0 0
$$ 0 0 0 0 0 0 0
$$ ##$ShimSysMatId= <no>
$$ ##$ShimSysMatrix= 1
$$ ##$ShimSysType= 4
$$ ##$ShimUnit= 0
$$ ##$TFXNUM= 0
$$ ##$TOSITY= <no>
$$ ##$TRIPLO2= 0
$$ ##$VTU= 2
$$ ##$VTUETH= <149.236.99.20>
$$ ##$VTUTY= <no>
$$ ##$WBREFAM= (0..15)
$$ 100 100 100 100 100 100 100 100 100 100 100 100 100 100 100 100
$$ ##$WBREFLM= (0..15)
$$ 0 0 0 0 0 0 0 0 0 0 0 0 0 0 0 0
$$ ##$WBREFPH= (0..15)
$$ 0 0 0 0 0 0 0 0 0 0 0 0 0 0 0 0
$$ ##$WBSGU= (0..15)
$$ 0 0 0 0 0 0 0 0 0 0 0 0 0 0 0 0
$$ ##$XFAC= 2
$$ ##END=
##$RELAX= 
$$ Bruker specific parameters
$$ --------------------------
##$DATPATH= <D:/Users/Homeoffice/Seafile/chemikalienlager>
##$EXPNO= 2
##$NAME= <cyclohex-2-en-1-on_930-68-7>
##$PROCNO= 1
##$ACQT0= -2.41596638655462
##$AMP= (0..31)
100 100 100 100 100 100 100 100 100 100 100 100 100 100 100 100 100 100
100 100 100 100 100 100 100 100 100 100 100 100 100 100
##$AMPCOIL= (0..32)
0 0 0 0 0 0 0 0 0 0 0 0 0 0 0 0 0 0 0 0 0 0 0 0 0 0 0 0 0 0 0 0 0
##$AQSEQ= 0
##$AQ_mod= 3
##$AUNM= <au_zg>
##$AUTOPOS= <12 >
##$BF1= 150.902809
##$BF2= 600.13
##$BF3= 150.902809
##$BF4= 150.902809
##$BF5= 150.902809
##$BF6= 150.902809
##$BF7= 150.902809
##$BF8= 150.902809
##$BWFAC= (0..63)
0 0 0 0 0 0 0 0 0 0 0 0 0 0 0 0 0 0 0 0 0 0 0 0 0 0 0 0 0 0 0 0 0 0 0 0
0 0 0 0 0 0 0 0 0 0 0 0 0 0 0 0 0 0 0 0 0 0 0 0 0 0 0 0
##$BYTORDA= 0
##$CHANFCU= (0..24)
0 0 0 0 0 0 0 0 0 0 0 0 0 0 0 0 0 0 0 0 0 0 0 0 0
##$CHANREC= (0..24)
0 0 0 0 0 0 0 0 0 0 0 0 0 0 0 0 0 0 0 0 0 0 0 0 0
##$CHEMSTR= <none>
##$CNST= (0..63)
1 1 145 1 1 1 1 1 1 1 1 1 1 1 1 1 1 1 1 1 1 1 1 1 1 1 1 1 1 1 1 1 1 1 1
1 1 1 1 1 1 1 1 1 1 1 1 1 1 1 1 1 1 1 1 1 1 1 1 1 1 1 1 1
##$CPDPRG= (0..8)
<> <> <waltz16> <> <mlev16> <mlev16> <mlev16> <mlev16> <mlev16>
##$D= (0..63)
0 0.8 0 0 0 0 0 0 0 0 0 0.03 0 0 0 0 0.0002 0 0 0 0 0 0 0 0 0 0 0 0 0 0
0 0 0 0 0 0 0 0 0 0 0 0 0 0 0 0 0 0 0 0 0 0 0 0 0 0 0 0 0 0 0 0 0
##$DATE= 1470906400
##$DATE_START= 0
##$DE= 18
##$DECBNUC= <off>
##$DECIM= 512
##$DECNUC= <off>
##$DECSTAT= 4
##$DIGMOD= 1
##$DIGTYP= 12
##$DR= 21
##$DS= 4
##$DSPFIRM= 0
##$DSPFVS= 20
##$DTYPA= 0
##$EXP= <c13.tci>
##$ExpStatus= 0
##$FCUCHAN= (0..9)
0 1 2 0 0 0 0 0 0 0
##$FILCOR= 0
##$FL1= 83
##$FL2= 83
##$FL3= 83
##$FL4= 83
##$FN_INDIRECT= (0..7)
0 0 0 0 0 0 0 0
##$FOV= 20
##$FQ1LIST= <freqlist>
##$FQ2LIST= <freqlist>
##$FQ3LIST= <freqlist>
##$FQ4LIST= <freqlist>
##$FQ5LIST= <freqlist>
##$FQ6LIST= <freqlist>
##$FQ7LIST= <freqlist>
##$FQ8LIST= <freqlist>
##$FS= (0..7)
83 83 83 83 83 83 83 83
##$FTLPGN= 0
##$FW= 250000
##$FnILOOP= 0
##$FnMODE= 0
##$FnTYPE= 0
##$GPNAM= (0..31)
<SMSQ10.100> <SMSQ10.100> <SMSQ10.100> <SMSQ10.100> <SMSQ10.100> <SMSQ10.100>
<SMSQ10.100> <SMSQ10.100> <SMSQ10.100> <SMSQ10.100> <SMSQ10.100> <SMSQ10.100>
<SMSQ10.100> <SMSQ10.100> <SMSQ10.100> <SMSQ10.100> <SMSQ10.100> <SMSQ10.100>
<SMSQ10.100> <SMSQ10.100> <SMSQ10.100> <SMSQ10.100> <SMSQ10.100> <SMSQ10.100>
<SMSQ10.100> <SMSQ10.100> <SMSQ10.100> <SMSQ10.100> <SMSQ10.100> <SMSQ10.100>
<SMSQ10.100> <SMSQ10.100>
##$GPX= (0..31)
0 0 0 0 0 0 0 0 0 0 0 0 0 0 0 0 0 0 0 0 0 0 0 0 0 0 0 0 0 0 0 0
##$GPY= (0..31)
0 0 0 0 0 0 0 0 0 0 0 0 0 0 0 0 0 0 0 0 0 0 0 0 0 0 0 0 0 0 0 0
##$GPZ= (0..31)
0 0 0 0 0 0 0 0 0 0 0 0 0 0 0 0 0 0 0 0 0 0 0 0 0 0 0 0 0 0 0 0
##$GRPDLY= 67.983642578125
##$HDDUTY= 20
##$HDRATE= 1
##$HGAIN= (0..3)
0 0 0 0
##$HL1= 3
##$HL2= 83
##$HL3= 83
##$HL4= 83
##$HOLDER= 12
##$HPMOD= (0..32)
0 0 0 0 0 0 0 0 0 0 0 0 0 0 0 0 0 0 0 0 0 0 0 0 0 0 0 0 0 0 0 0 0
##$HPPRGN= 0
##$IN= (0..63)
0 0 0 0 0 0 0 0 0 0 0 0 0 0 0 0 0 0 0 0 0 0 0 0 0 0 0 0 0 0 0 0 0 0 0 0
0 0 0 0 0 0 0 0 0 0 0 0 0 0 0 0 0 0 0 0 0 0 0 0 0 0 0 0
##$INF= (0..7)
0 0 0 0 0 0 0 0
##$INP= (0..63)
0 0 0 0 0 0 0 0 0 0 0 0 0 0 0 0 0 0 0 0 0 0 0 0 0 0 0 0 0 0 0 0 0 0 0 0
0 0 0 0 0 0 0 0 0 0 0 0 0 0 0 0 0 0 0 0 0 0 0 0 0 0 0 0
##$INSTRUM= <spect>
##$INTEGFAC= (0..63)
0 0 0 0 0 0 0 0 0 0 0 0 0 0 0 0 0 0 0 0 0 0 0 0 0 0 0 0 0 0 0 0 0 0 0 0
0 0 0 0 0 0 0 0 0 0 0 0 0 0 0 0 0 0 0 0 0 0 0 0 0 0 0 0
##$L= (0..31)
1 1 1 1 1 1 1 1 1 1 1 1 1 1 1 1 1 1 1 1 1 1 1 1 1 1 1 1 1 1 1 1
##$LFILTER= 500
##$LGAIN= 5
##$LINPSTP= 0
##$LOCKED= yes
##$LOCKFLD= -5811
##$LOCKGN= 90.6944351196289
##$LOCKPOW= -20
##$LOCKPPM= 2.49000000953674
##$LOCNUC= <2H>
##$LOCPHAS= 183.2854
##$LOCSHFT= yes
##$LOCSW= 0
##$LTIME= 0.25
##$MASR= 4200
##$MULEXPNO= (0..15)
0 0 0 0 0 0 0 0 0 0 0 0 0 0 0 0
##$NBL= 1
##$NC= -5
##$NLOGCH= 1
##$NOVFLW= 0
##$NS= 256
##$NUC1= <13C>
##$NUC2= <1H>
##$NUC3= <off>
##$NUC4= <off>
##$NUC5= <off>
##$NUC6= <off>
##$NUC7= <off>
##$NUC8= <off>
##$NUCLEUS= <off>
##$NUSLIST= <automatic>
##$NusAMOUNT= 25
##$NusFPNZ= no
##$NusJSP= 0
##$NusSEED= 54321
##$NusSPTYPE= 0
##$NusT2= 1
##$NusTD= 0
##$O1= 16599.30899
##$O2= 2400.52000003743
##$O3= 15089.0958591106
##$O4= 15089.0958591106
##$O5= 15089.0958591106
##$O6= 15089.0958591106
##$O7= 15089.0958591106
##$O8= 15089.0958591106
##$OVERFLW= 0
##$P= (0..63)
11.5 11.5 23 7.5 15 16.5 25 50 350 25 50 40000 40000 2000 0 0 1000 2000
500 600 2500 0 0 0 1000 0 500 11.5 0 2000 0 0 3700 0 0 0 80000 0 0 1700
4000 0 0 10000 740 0 40000 1050 2000 0 0 0 0 0 0 0 0 0 0 0 0 0 0 1400
##$PACOIL= (0..32)
1 4 3 2 0 0 0 0 0 0 0 0 0 0 0 0 0 0 0 0 0 0 0 0 0 0 0 0 0 0 0 0 0
##$PAPS= 2
##$PARMODE= 0
##$PCPD= (0..9)
100 60 70 100 100 100 100 100 100 100
##$PEXSEL= (0..9)
1 1 1 1 1 1 1 1 1 1
##$PHCOR= (0..31)
0 0 0 0 0 0 0 0 0 0 0 0 0 0 0 0 0 0 0 0 0 0 0 0 0 0 0 0 0 0 0 0
##$PHLIST= <>
##$PH_ref= 0
##$PL= (0..63)
120 120 120 120 120 120 120 120 120 120 120 120 120 120 120 120 120 120
120 120 120 120 120 120 120 120 120 120 120 120 120 120 120 120 120 120
120 120 120 120 120 120 120 120 120 120 120 120 120 120 120 120 120 120
120 120 120 120 120 120 120 120 120 120
##$PLSTEP= 0.1
##$PLSTRT= -6
##$PLW= (0..63)
0 75 6.4 0 0 0 0 0 0 0 15.87 0.6348 0.073469 0.036955 0 0.576 0 0 75 2.7552
0 3.6e-06 0 0 0.0002304 0 0.018367 0 0 15.87 0.073469 0.29388 0 0 0 0 0
0 0 0 0 0 0 0 0 0 0 0 0 0 0 0 0 0 0 0 0 0 0 0 0 0 0 0
##$PLWMAX= (0..7)
318.868 63.3064 0 0 0 0 0 0
##$PQPHASE= 0
##$PQSCALE= 1
##$PR= 4
##$PRECHAN= (0..32)
-1 3 0 5 4 -1 -1 -1 -1 -1 -1 -1 -1 -1 -1 -1 -1 -1 -1 -1 -1 -1 -1 -1 -1
-1 -1 -1 -1 -1 -1 -1 -1
##$PROBHD= <Z75812_0080 (CP TCI 600S3 H-C/N-D-05 Z)>
##$PROBINPUTS= (0..15)
<> <> <> <> <> <> <> <> <> <> <> <> <> <> <> <>
##$PULPROG= <zgpg30>
##$PW= 0
##$PYNM= <acqu.py>
##$ProjAngle= 0
##$QNP= 1
##$RECCHAN= (0..9)
0 1 0 0 0 0 0 0 0 0
##$RECPH= 0
##$RECPRE= (0..24)
-1 3 -1 -1 -1 -1 -1 -1 -1 -1 -1 -1 -1 -1 -1 -1 -1 -1 -1 -1 -1 -1 -1 -1
-1
##$RECPRFX= (0..32)
-1 -1 -1 -1 -1 -1 -1 -1 -1 -1 -1 -1 -1 -1 -1 -1 -1 -1 -1 -1 -1 -1 -1 -1
-1 -1 -1 -1 -1 -1 -1 -1 -1
##$RECSEL= (0..24)
0 1 0 0 0 0 0 0 0 0 0 0 0 0 0 0 0 0 0 0 0 0 0 0 0
##$RG= 912
##$RO= 0
##$RSEL= (0..24)
0 1 2 0 0 0 0 0 0 0 0 0 0 0 0 0 0 0 0 0 0 0 0 0 0
##$SAMPLEID= <>
##$SELREC= (0..24)
0 0 0 0 0 0 0 0 0 0 0 0 0 0 0 0 0 0 0 0 0 0 0 0 0
##$SFO1= 150.91940830899
##$SFO2= 600.13240052
##$SFO3= 150.917898095859
##$SFO4= 150.917898095859
##$SFO5= 150.917898095859
##$SFO6= 150.917898095859
##$SFO7= 150.917898095859
##$SFO8= 150.917898095859
##$SOLVENT= <DMSO>
##$SOLVOLD= <off>
##$SP= (0..63)
120 120 120 120 120 120 120 120 120 120 120 120 120 120 120 120 120 120
120 120 120 120 120 120 120 120 120 120 120 120 120 120 120 120 120 120
120 120 120 120 120 120 120 120 120 120 120 120 120 120 120 120 120 120
120 120 120 120 120 120 120 120 120 120
##$SPECTR= 0
##$SPINCNT= 0
##$SPNAM= (0..63)
<> <Q5.1000> <Q3_surbop.1> <0.0> <Eburp2tr.1000> <Crp60comp.4> <Crp60,0.5,20.1>
<Sinc1.1000> <Crp60,0.5,20.1> <> <Crp60comp.4> <Crp60comp.4> <> <> <Eburp2.1000>
<> <> <> <0.0> <Q5tr_sebop.1> <Q5tr_sebop.1> <Q5tr_sebop.1> <Q5tr_sebop.1>
<> <> <> <Gaus1_180r.1000> <> <> <Q5tr.1000> <Q3_surbop.1> <Reburp.1000>
<Q3.1000> <> <Q3_surbop.1> <Q3_surbop.1> <Q5.1000> <> <> <> <> <Crp60,0.5,20.1>
<> <> <> <> <> <> <> <> <> <> <> <> <> <> <> <> <> <> <> <> <> <>
##$SPOAL= (0..63)
0.5 1 0.5 0.5 0 0.5 0.5 0.5 0.5 0.5 0.5 0.5 0.5 0.5 1 0.5 0.5 0.5 0.5 0
0 0 0 0.5 0.5 0.5 0.5 0.5 0.5 0 0.5 0.5 0.5 0.5 0.5 0.5 1 0.5 0.5 0.5 0.5
0.5 0.5 0.5 0.5 0.5 0.5 0.5 0.5 0.5 0.5 0.5 0.5 0.5 0.5 0.5 0.5 0.5 0.5
0.5 0.5 0.5 0.5 0.5
##$SPOFFS= (0..63)
0 0 0 0 0 0 0 0 0 0 0 0 0 0 0 0 0 0 0 0 0 0 0 0 0 0 0 0 0 0 0 0 0 0 0 0
0 0 0 0 0 0 0 0 0 0 0 0 0 0 0 0 0 0 0 0 0 0 0 0 0 0 0 0
##$SPPEX= (0..63)
0 0 0 0 0 0 0 0 0 0 0 0 0 0 0 0 0 0 0 0 0 0 0 0 0 0 0 0 0 0 0 0 0 0 0 0
0 0 0 0 0 0 0 0 0 0 0 0 0 0 0 0 0 0 0 0 0 0 0 0 0 0 0 0
##$SPW= (0..63)
0 0.0020863 0.0017082 0 0.033444 15.155 0 0.0010381 15.155 0 15.155 15.155
0 0 0.033444 0 0 0 0 29.5321 45.90669 21.43517 115.5981 0 0 0 1.3282e-06
0 0 0.24384 4.991 0.11534 0.00062756 0 2.479 0.0017082 0.83454 0 0 0 0
15.155 0 0 0 0 0 0 0 0 0 0 0 0 0 0 0 0 0 0 0 0 0 0
##$SUBNAM= (0..9)
<> <> <> <> <> <> <> <> <> <>
##$SW= 258.830195782534
##$SWIBOX= (0..32)
0 1 2 0 0 0 0 0 0 0 0 0 0 0 0 0 0 0 0 0 0 0 0 0 0 0 0 0 0 0 0 0 0
##$SW_h= 39062.5
##$SWfinal= 0
##$SigLockShift= 0
##$TD= 65536
##$TD0= 1
##$TD_INDIRECT= (0..7)
0 0 0 0 0 0 0 0
##$TDav= 1
##$TE= 294.0018
##$TE1= 294.0018
##$TE2= 0
##$TE3= 0
##$TE4= 0
##$TEG= 300
##$TE_MAGNET= 0
##$TE_PIDX= 1
##$TE_RAW= 300
##$TE_STAB= (0..9)
2 2 0 0 0 0 0 0 0 0
##$TOTROT= (0..63)
0 0 0 0 0 0 0 0 0 0 0 0 0 0 0 0 0 0 0 0 0 0 0 0 0 0 0 0 0 0 0 0 0 0 0 0
0 0 0 0 0 0 0 0 0 0 0 0 0 0 0 0 0 0 0 0 0 0 0 0 0 0 0 0
##$TUBE_TYPE= <>
##$USERA1= <>
##$USERA2= <>
##$USERA3= <>
##$USERA4= <>
##$USERA5= <>
##$UUID= <>
##$V9= 5
##$VALIDCODE= -1
##$VALIST= <>
##$VCLIST= <>
##$VDLIST= <>
##$VPLIST= <>
##$VTLIST= <>
##$WBST= 1024
##$WBSW= (0..7)
4 10 10 10 10 10 10 10
##$XGAIN= (0..3)
0 0 0 0
##$XL= 0
##$YL= 0
##$YMAX_a= 3310631
##$YMIN_a= -2545187
##$ZGOPTNS= <>
##$ZL1= 120
##$ZL2= 120
##$ZL3= 120
##$ZL4= 120
##$scaledByNS= no
##$scaledByRG= no
##$shimCoilTempK= 300
##$ABSF1= 239.4293
##$ABSF2= -19.42937
##$ABSG= 5
##$ABSL= 3
##$ALPHA= 0
##$AQORDER= 0
##$ASSFAC= 0
##$ASSFACI= 0
##$ASSFACX= 0
##$ASSWID= 0
##$AUNMP= <proc_1d>
##$AXLEFT= 0
##$AXNAME= <>
##$AXNUC= <13C>
##$AXRIGHT= 0
##$AXTYPE= 0
##$AXUNIT= <>
##$AZFE= 0.1
##$AZFW= 0.5
##$BCFW= 0
##$BC_mod= 0
##$BYTORDP= 0
##$COROFFS= 0
##$CY= 15
##$DATMOD= 1
##$DC= 0
##$DFILT= <>
##$DTYPP= 0
##$ERETIC= no
##$F1P= 0
##$F2P= 0
##$FCOR= 1
##$FTSIZE= 32768
##$FT_mod= 6
##$GAMMA= 0
##$GB= 0
##$INTBC= 1
##$INTSCL= 1
##$ISEN= 30
##$LB= 1
##$LEV0= 0
##$LPBIN= 0
##$MAXI= 10000
##$MC2= 0
##$MEAN= 0
##$ME_mod= 0
##$MI= 0
##$MddCEXP= no
##$MddCT_SP= no
##$MddF180= no
##$MddLAMBDA= 0
##$MddMEMORY= 0
##$MddMERGE= 0
##$MddNCOMP= 0
##$MddNITER= 0
##$MddNOISE= 0
##$MddPHASE= 0
##$MddSEED= 0
##$MddSRSIZE= 0
##$Mdd_CsALG= 0
##$Mdd_CsLAMBDA= 0
##$Mdd_CsNITER= 0
##$Mdd_CsNORM= 0
##$Mdd_CsVE= no
##$Mdd_CsZF= 0
##$Mdd_LrLAMBDA= 0
##$Mdd_LrNITER= 0
##$Mdd_LrRANK= 0
##$Mdd_LrZF= 0
##$Mdd_mod= 0
##$NCOEF= 0
##$NC_proc= -3
##$NLEV= 6
##$NOISF1= 0
##$NOISF2= 0
##$NSP= 0
##$NTH_PI= 0
##$NZP= 0
##$OFFSET= 239.4293
##$PC= 1.4
##$PHC0= 224.0374
##$PHC1= -249.937
##$PH_mod= 1
##$PKNL= yes
##$PPARMOD= 0
##$PPDIAG= 0
##$PPIPTYP= 0
##$PPMPNUM= 2147483647
##$PPRESOL= 1
##$PSCAL= 4
##$PSIGN= 0
##$PYNMP= <proc.py>
##$RDF1= 0
##$RDF2= 0
##$RDFWHM= 0
##$RDINT= 0
##$RDPOS= 0
##$REVERSE= no
##$SF= 150.902809
##$SI= 32768
##$SIGF1= 0
##$SIGF2= 0
##$SINO= 0
##$SIOLD= 32768
##$SPECTYP= <>
##$SREF_mod= 1
##$SREGLST= <13C.CDCl3>
##$SSB= 0
##$STSI= 32768
##$STSR= 0
##$SW_p= 39062.5000000001
##$SYMM= 0
##$S_DEV= 0
##$TDeff= 65536
##$TDoff= 0
##$TI= <>
##$TILT= no
##$TM1= 0
##$TM2= 0
##$TOPLEV= 0
##$USERP1= <>
##$USERP2= <>
##$USERP3= <>
##$USERP4= <>
##$USERP5= <>
##$WDW= 1
##$XDIM= 32768
##$YMAX_p= 426906141
##$YMIN_p= -863594
##$CURPLOT= <Lexmark C734 PS3>
##$CURPRIN= <$Lexmark C734 PS3>
##$DFORMAT= <normdp>
##$LAYOUT= <+/1D_X.xwp>
##$LFORMAT= <normlp>
##$PFORMAT= <normpl>
$$ End of Bruker specific parameters
$$ ---------------------------------
##NTUPLES= NMR SPECTRUM
##VAR_NAME=  FREQUENCY,     SPECTRUM/REAL,   SPECTRUM/IMAG
##SYMBOL=    X,             R,               I
##VAR_TYPE=  INDEPENDENT,   DEPENDENT,       DEPENDENT
##VAR_FORM=  AFFN,          ASDF,            ASDF
##VAR_DIM=   32768,         32768,           32768
##UNITS=     HZ,            ARBITRARY UNITS, ARBITRARY UNITS
##FACTOR=    1.19209289550782, 1,            1
##FIRST=     39061.3079071046, -271972,      860468
##LAST=      0,             25810,           -417969
##MIN=       0,             -863594,         0
##MAX=       39061.3079071046, 426906141,    0
$$ Real data points
##PAGE= N=1
##DATA TABLE= (X++(R..R)), XYDATA
32767b71972m4291A6654b09696i7942A10723l3790a50699g2945A54605m5118J03826
32756B13313J37056A6224g3040A16980h5585k41328J04714E4078j6846f3243B1761
32744A7468b1007D0846a13858A18262B6657c645C6109A7991c52189a26996A14553
32732b341j24743H9036m4287Q5692B9010h8347b4914r0105K3137K0849q2346D6612
32719B0017a70607h5088E1107O9647n7706b0747j52116L1485E0288d1509o5925
32708a07434j75661a7726j50707j747q7189N2991O3155a7827A00211D1464A1584
32696B40616p0034a02637j23027j54425A38326c04446J08265K6138o5088F4453
32685a04380f920k720A46604a2523n9440j90478J645r685J03628e2443A83725
32673B97394g9912M339G8020J347e7544F0102c0917E4691h3810p7229j07507a18387
32660G1208f1639K9309j167j82855O8398N1613M66a205C8125N8917d2001R851
32648c2150q1978A35799a7077j8157o6398q1683j01318i5255A52826A6478L4035
32637E0513J05645A8426i6916c9020C52649k4025a64383O9207L7872I9956f5324
32625b44697k34909b15170k5682I7898j6272b38558C4145J18328o8627B8579J16152
32614A44731h616A27499J28315c951o3438j6851A85224C8546C271j628a57262
32602i0822b0793k74834g6390r3107l5277G9860J72501l5969a83931m7224M2306
32591a88849c2763j69991h6654m9083K8469j1494J1400H5319a89829J8834J140
32580a69855J8182m9674B4774b13331d1178j47830h0532j90198j06282J12286
32570b64726a9603l18804A50841A8935a84813B7746b84503j2163e9543j76360
32560b35903i6639l56726a80812j20456a9374H556J9037D261J00455e1552j35522
32549a87074m890J9266b900G9889k8040L8535k0930J31530e017q3431a6934A308
32536B33518J05402I3129h7878o1016f5075j48274j3602K5501h6695H1733J56188
32525B37921A15618K4521L42933B04731l6992J22775A18647d30749F6038B52K323
32514B575O6093J09762J23047I1258K85638p6045f8216k43988b7512E7150N4226
32503A11376k5102C7829a44705b8590A18894J48248f5684D27085a07203j38023
32493b45226L5499G2198b22987A51932J14295r5372e5732b3399B40267q2152O1888
32482B20003E5302c8481j39633r38a2560j40216D9601q74d00110a90375k02558
32471c92933c0999B74303K36848c8670o7813o5370n3424A10526Q2474B3090b78922
32459c44604m5146J62845N3047m1916O3957O2986J0657A86042J19117j15526b0887
32447a38639r7224A73054R9369q254q1019a79227N9740b9256A28670D9196a50461
32435A57611c8948j02982m09324b23962J08250j75330j05325J76276r0607p7549
32425c88247a68849m8472i5286A11370L0873a95741j26335f7225j46284k0156
32415b33665J08108l7441a4075r398E3999J96992a236D7521b34983j28539J06063
32404b57459N9748Q0474J1852c6674B51129F8658a68484l04623b2728B4661Q4619
32393A09280l1892a18347j84429J30605L336B3388L23933A09445d4184k13402
32383b57586g9104j01543j18899G466b8986p2554p4654j9500R5074j7681d8412
32371A4810J85215a11769K629D24087b3712j11925A85786n2757a59700A24136
32360A0426a78936G1724k5273b88827b8949k2775o3791k91255R0104c0804A88458
32348e2736D9388J83218P004a85185h1357A5383c2112A48134C2334K1313J70020
32337B23667b77318O2360m0789b7461k02520A8304a58032a3619j80221A08958
32326C30741j14449j978G0893J52161q9970j2867a67550O3534j09067J2405B736
32314f016A11071a34495k4255H5831E702a63358C394J9375J08799g0703m1617
32303a12320j49835L01F5556a04933p308k05093j531a27798k96553q7435b40278
32291e7412B27547a96406R5231k10908J6281F2367P9728N0276d45550a29318G0611
32279b81673J21469k0251l93401J95703P4640a05640k45516a17457l5009O6914
32269h5552K2550B78506K07540M4767B01561k0117m4464a53287E3485D576O9205
32258G3781i3453m3510A1452d0721A14569B0035h6844k30480m7690a09216b9349
32246E1354j4485b377A5274g4025H895a87351E3700c207j55320k38012a55542
32234g7603c0569A37696K3022c2267m31265b15878L5211k2623H2687R7038l8403
32223A41322a2553j76624B4275J9058a61174A15479b43619J04944d8762j39290
32213a88052j5905R5280D4251L41005A56893p15L9337Q6811a39379M9495c9548
32201C1047b48372a5618j25248D5249j1977a46314A06222d1956A28215L85189
32191E13404j16419A8099a74310A50764d07A29000a28104p608j57725Q0825M001
32180b08611r8420Q6199m11826C2656a7890A61132K54296j10634a35002D05304
32169e4002j09838j19050O1867i5195j2834A5914h4716B11260c4541k76239A50670
32157C59636A03108C1800d87049a71434b0035m5161R901p5450a8981A16804D5876
32145D09388D7037j3683b6815j16186c2400D0764K0400b1841j76675j27015j60599
32134d86130F2430a23415F0863n709a55072B04710p4417c171l16221E4887K83947
32123C38834J8898c7570q7456k8037j55172a49956o0386c0440A13543D778a19104
32111a65751B28341E342J9876e4789I3616g4163k24908a49412d8914j26865P0858
32100a04921A7418a15778j41439c6116H9085J0196b2300B47425b45090k21036
32090d66126b18311M5161h5406o844k60726a07861m2695j60463G1825A8287K11633
32079B29920A02559R5312j9903Q1404b13762H5871g7532B22560d0688k09011j69086
32068d18785a23793O0673J4677j17237B53450e6116A35614l3163c63797j67386
32058e31183N5752B3938b37721J03415B654a01139A42916K55886a50868k27837
32048c78705c9345k6804A65564J715j4375p2144Q6697E6884a40128n0627P7528
32037a13227F1249d9091e008j94611J1283c1882l75322l2616O3489J50562B11506
32025F5004c42932C50059A49093a30264o3362a9838k338q9839k43038A91002L6007
32014B27009f8647k4607j49274k0332k2232i6447j47708a20595a0678j06232A60490
32002c71840J04225H3000K41313E0877q041a23720e1093j95906J663I9772B7360
31990A42869I822b65449J05058F3239A1548b58655M6699a04090d7611k13341N1814
31979b09138J1124n9429e7996p189B57602j00206l9443O5979J60317A64831E1154
31967A1080g865m04654o6295a55216A58805a39252e7704j985F1145i4231A64607
31955A75815m2678E8640b34386j0073a18602F4922a03265M1925l85399a55567
31944A76429b005H6915J06368a90757o9292A66411a59038g8997O930B55663j09775
31933A45888d91008p0490J80122k05741M2815K22450a0196j05429k09739A20000
31922d15205K3913d9929C0061a86771k17126e3687o4752j87586N0999a02853E1123
31910H2698f3517j9567j23852j30610Q7285m3669J16331I1159J1422k56B697K19908
31898B22605b24011j433K5694A41320b50397k49389a1420A24190h832A19335D5518
31886h9586k68328a53168G76c12601J6920g8665j88063a13115d9180r4306O7355
31875g6131k83923P2734B0017b83306R351c8439j56543k88926C4070J68877b20607
31863a22282J2514D0348a19484m0290p8353f3292C49442E9754K62819K78325a8724
31851H3191k3691B4754i5512G9796K44752m7729F8125L08968k5511j48399b469
31839E6756E324b9819j77852h3887K3759C1285a23386j2758e1515A26992D2692
31827B5270L28206o5304L5911j15369J17011d2424m41799J45340j06020i9783
31816B3615b53685h3509m9247j64438a04613c1808H8992b46000j21143I3654J13693
31805B07347A3593a47357B22559n8785J7522c68571J76238e2126k17262g6302
31794d83618B9097K43497b75628c9617C8245o82L04339A11946g039l9918A10533
31782A10304J0241O2298e3451A13770r088a42841k0724B71461a4307E7195P3779
31771A30974E844b32217N9873B3222a90146d1479l52081a15127a7616j14575j19139
31760b51330J06747F615K25820r0523d5136a1021B85383r6967N529K3465l5330
31749A82080K47658j86157Q5699j61261N0756D8066L43965D4734K16524J05802
31739C67060n7560K4184J9977q3630E8660a1978B87745b22520O9455j10664D4330
31727b01028i4788j05201N8439f5795C22971G0270N5867O133Q2814J4024a9167
31715e53956a76710k37049a79640O3929I3805f8290j58965d8123F0348K56275
31705C16623A5435R6415d0859k5649K4193C5299b384E300b501l11810a20621r963
31693a30584A2860K91169a48120B28980b63635R6295A79630e2141C05783J20511
31683D26294D1027J610L9849b8434l70868j29999a58908d1611L956n2454B77883
31671a2513j07677r7842A98608c09703g1313j63057h0181A26693N4207D1497P139
31660D8636L23069A83894a90484r8608L0466N9409j27789f0911A38552f145A53214
31648f0795C4561A5244d85662j30527O2543b17735R2407B3076C560f0546k86846
31637c47392J17135A00429a29142O1566l7284B04229a09383j67592A42752O1690
31627B04442a69576K6346A17150k5643a41347c6000n9530h541A12082K41816J31300
31616D85198D1707b69975f7669j29170A18868b58421M2770e5637j87041C1764
31605e146k36726J857k34455A05268h1171j28932C25130A00886h5138M547F04
31593H8765c15708g0035p4453P1187j73469A48557N9860P7102F0872i7542J6608
31582h0934m4481k57765M0020M3452m2516a50792k06480i3256C0080C499L5844
31571C9343Q3097n5798a3878q5661m9942e7695j13528j33123k01152b18943n1588
31560b70531j51215a37212k29844b2021A52600D9442N6623J32370a16244A68976
31549I3226l0567g814k86647a10203B32990n2824G4194h4207k79336d0206D10058
31537C64067P532j84035a89158G7092i4945j80640M1076A5198a16757q3825B17909
31525E6416a63201j49910b015o0761q3670A23567b01772j76226i9719j76546a00221
31513A13167J62025m5297K20798n9196G9714b67298n9091M515A50694j1789L82849
31502E21754B38418A00954a20730a0670j15070B827b21970k70103J60073A25954
31491A73854b62056N1240j37757a42955j16738M4822j17469c735j3131D7050B0818
31479F6564K94009f8763A66082i0976o7840m7831j33869n2625n7036K619J38080
31468c09478n2H2057a92024r0050g65B77235a42835B47776M1233r9421E2513d3209
31455A25723j6161J23366J64654c6101A58473k768G626P5410g3403j50025D12206
31443a43617q0783J07453j15999P6509A92217P5287J23725j54057p2596c97786
31432b49376q6579j10850K8804a95361e2315A60180B3591a17066j15273C20196
31421c47330r3877B4869K89999D3503K01480a33708j71288A55601p2172C756K02281
31410B06037b38647N0403N2916a244l7979p8455j25663J07358f2061l4187D9510
31398A87447a4293C46731c22270c1905k56413p6152J61309K749l9243R869a11187
31386H8937b7251A1560M18347q3151I5145M0048B0963J90256r5867n15L8073e2101
31373B40486h5446c7777B49270J67656O0273A82696J27639f1828k9066j11552
31363b02446j43555j9930j18202J98576A48340c8105p2581j127B21312e4973j64891
31352b19864I5063D009e87590O3294d7331j00980J4356B29817d5421J4838F8476
31340G9991J9132a47853k98985e6364A66186A2481c0714D6612J54021n223m2550
31329A52860b07795m211d1534e259q9549k08741R002A08047o692O0706d1004E14434
31316A65096L1917R4922c76876a35827c9252k86981L6780q5105a905E4019c1590
31304B36928G5262a83623k40719J77699J10484H5496Q0275q0614h8126A06481
31293g6274A3020J02121g8126B5143b46808a00166m8832N0661c62D4307b7005
31281g36072K80883K18314E6017P3514J82171A276a02422A1132a13205q6973D0609
31269a37163M4335H460M2821a04151B4483d9962a3172C55748A17052K6160F4723
31257c80273k71324a4642B36436j0335F3950d3832j02811k93295k03350b40196
31246h2087j93783i0055a2073k81332j76525a25112A83410d5552p612g963j10775
31235a18738j22451A1007c1951l4991c3252i461j90612j47002a49101A13241J16900
31224B30141F3064J24439c08349h8572j21751A32549J46468b5172k71695N1689
31214b45178C73404A00650a08745j77494J34077M7790A59232a80101A30096C2167
31203B07556J41226j30374o9699a2710k26818a06284r1876Q835I8977K16768j57756
31192A57989L6649a4738j31980j53027j8563B13538J39027B2507f3515j14832
31182a78347C7901F970a79673j0019m7985k7603L6486i6964p2048B6434b1093
31170a44505p2616B2867A396b19170Q6877j98225A12165c359l03947J15420j29070
31159c20956g9942n1348j30962k10689O8213m1433a72534o8989n0637o4034L1545
31148c24649a12160C24976A21153O9994a8274B3850J35299c71154J14929n1217
31138c07442f3318A74014a58053m9852L3678p7737J19698j35071j9110i6722k2458
31127a19180j57353C0141a03773C75226a09703B15566i8648C0667h0318q9493
31117a69811e565k61302a8947j52977m2826j88271i6416q0689j78016L9723J38819
31106a76579k87879P9323J82531l3165A67272D0232B08d49551J69501M0069a0405
31094B16326B3376a45746A22071b13938C68588C8315j0067J39750E5915d1575
31083F5134h9434A82979M0370b07996C2701N2823e438o1183b7413A29306a14288
31071F4783b54353B54320j08140d7557A39370d24847J6240a38200o4485k03721
31061d06406B16944b96693N4967a9099m30159J49515f553B1219P3081i8761q237
31050a06998D7710Q4381C3426J7470K74800o939a05223b9605j8662h797j57485
31039a66282l07990A07170b15505R8849C80814A77865J4991H7015R0545b6010
31028A703e9639B07530f8651j08456j94730a34491C3034a60958q0403B66534c5210
31016b36128C16471F6811h3850A09335q518h9141F435a40705A83700R8250L0435
31005C12385A35728b87433C52797A56467L65410k37951k6869J84621H5560b24170
30994a11155A25177L4653e1023A11748J86828K35102A32956a02662b6410B31620
30983b41843k06573g182j12763j51740c8858C16479i1998f805q5521b0811j32221
30972a53032J4378A5709a1563k14366g5616A53731b07688f6504l5470l7958G8881
30960B6555K58626M6949M3299j31332G3728J05246d4289A04821k6497c6956o4654
30949a01610B42383d4824C2029g2141j99569A60854K05784j08591a13280E3928
30938b90252i662A1365J63940B9565L83757J9656B05018D8729L84690A13246Q832
30927A22078O1721K3985p8648a10744k54518J36952I2362i8573B0687b10260R0580
30916a19680l0949j95763k51278d4053A78380C2116J23732A8874J60052L24622
30906E03548j08520j02378l3985e1638A0180N9845B7501G681O3214k7939g3958
30894E0091K57181J45648F90a46268A47247L85277A37164M2199E1808J04898d437
30882b71387B67002A12858b20894D1046K35590c23448j1406d8576j15113d7169
30871c6136A36817i3795I4292M58338R7268B64020a1689A9212a89104j34635A79901
30859B58523J77547A46609f7358j9496B42400a71836A69421a65528j0684O2586
30849a13626k48437a21725q2335D54853j04543j44873O4346A18768a51520p0165
30839b21685B35944J81970E6018K51941E8755a20155j69172L3305J2004a06379
30828A95440L5481b43208A39789K6000f0197A86830R157D9576a0141p222A67051
30816b5642E30423A37055J04204b05032A38861K07824j47499R0962j8521b20778
30805g9603H8627Q5687H3297K39672j15652F1898J64889r786k8948J1735A0782
30793A91042Q2344j36055o3661K6815a34213B6858L00657J09349q8791A66627
30782C9086i6617A45656D1446L6641i8555q7392d2075C59435A45395K24924F394
30770H7157L4462K2042J55529j02335A3072b38988G3945K5445a13438l5270j39977
30759b88685R6385j69824C5260J28997k1701f1707p3902A46972L22319j52348
30749C16943K09097A06435m6688P3063c59277q4180b20916Q3557a4983A56704
30738C63311A05328d438H451c69092N8120J07774A06606J82102I681L78646f4134
30726A58585K7872c1477r3791p2188j5092a2593A9780L4264L9933b04689k5881
30715b30570n8331C36640b378r0085c6407m0357B59733c61040a80029B11059a31749
30703c35361a01313B40099G8814a70217A01680L91674j09430D2426J89273p2039
30693A59660a00017j39151L0952j09146j26494J05749k03299g478k80008B556
30682B5779e3830B81287f6588j67848M8069K7084q9917C2270f6467B76333I9729
30670F5385J59115c7848D21334A02079K97215n7924h7862K7815p5956q833j6801
30659a61637O2953q7223k17857a47176C4950M2779a93794b3036E4510J39040B6789
30647b56974B05773J5882f7329C6827L11953J29518j08489b3254D1303a61665
30636a87461p59N7858L784F7023J70239F2286M3837K63730C2257K18263D2611
30624B10599m710p7818A9754J99969O5239N567a99413j53530Q8106b2417G0651
30612e0136J2595A72627i2320j93615f4782l08838a19443j18665r3507f9651j60588
30601b30239k91615b16577A34851a59644G5436a53730B13125N7713M7386A52204
30590A09220a7856j00059N3167A92694r3116a52493l0978A68826n4664i0064l87996
30579d78060i2340B06484p3884a56952A90090h0226k47829J61501e9723A12110
30568B2302J85926b85312B6211h8405A4484M3012c730B05763g9256A69716m0713
30557A29003a52596D89892A69831b38633j05406J29395i4368r0858j36283e2136
30546h8397k20721C18172A28336a06062j98585C548f1890F3876L2594g9323j50729
30535b30052f6347o9114o0080B3508J02314E479O6624c9534j76567A09571b95420
30523A28279L29415A26625l8573l049J69007j4641O5384a17846A32936M1530G2110
30511a97841H3359o627k6711b23671n5429o0712J43698C25073j25430p1879K94091
30500D21855q5141P0433q4514n3524q5965G0868g4698A02001b98207B58216J87477
30489D45693A1931K86593A23146J83575j51643F8188C2429e3582J316j2537A03859
30477b83835A13548D7065e9165k104A17752K5756h5498l00615A41427a78796M4737
30466a34059A94989i5450m7049j23213d6013A22115k4753I78Q9668a79323B13380
30454B75082D9050K52974q9495R1242a12051j29464i8373B7383f2436A9793b09643
30442A63535N57777B72252K56206a54856I9794K47730A23037D8256K55087K09897
30432E13240j77938i6405C18668j04063R504r2190K17260J364J76351N6609A22244
30420A25548a394E1385j1693J8449b71487E990f256C99948N7222I1377N7912j5390
30408A33899a80281A7150J95419l1506b65144F3475K85399j57501H521K51026
30398B59547N28500k26855A91481J2718b85896m2987A85987J26978E0608a12286
30387D6200a71190n1883M4253K3199G5656j6533L90269A51280J74205A45110L4458
30376A79568B9204J68527E1854J40554p3671j6964d03810A06733J07403L4622
30366B48758C2557J78667b0168o7825K8242b59A07341f841k67463o4253A16957
30354f4026B20971n383F2082b96477B72386D3425a4779k68780b958E9599h274
30342g9156A2159R9271n4849M0073l005b0932A73732n1739a72307A17980L8108
30331A56088b4885F6477c02316A39322m6397k6503J51631E6090b79027f690A92569
30319D8942a75763A53577m2912c18808J25433b0380B8151R1395B0591c5641A03882
30307a09493B7847a17277l42052k26567a16894I5788J6884b17264a02823q184
30297a11007a9483o0775A1491c02871H1190c39127e4648A05594Q2568M00871j21120
30286D67913I8858a93716I3607b49092A53085K9536K46049H0647K14844J79972
30276D75463j76737j20563a11083a4113l37738a39903A83231a92329B08270C3987
30265a93312P527i0764p5225k09217e1402B2675L9995g4452j20757j71584i9248
30253b25428f1837A58621Q0605A17860o152P9853J59216A41868J08504A07574
30242G5789a76819A67385j5255b12100i7598j77057C3267a02062q3500C01683
30231C94163j80442g6541A33651M14697j26789j34284p7841r6162D5277J16192
30221A61469g903j04129B42499A4787L12017A13318a26364j230e981D35037L1222
30210D66259c2957A03684f3943A5612a88815p9568d5542B6541K27032J2382j23024
30199A42931c3990B57404a26653k8665M2176I961K13244b90211f8287r6039b8077
30187a77775B05468O0787M4293q7373A2556b74031j44167K06803n9128J4812B46645
30175f4204A02240K17414K29908B61964a54628A25299a046I1572f4546b1041D07771
30163B03189E5771g7679k33445a42550A28511l2352C8102H161a0320A32950P4355
30152B07305b67059M6705d6018j50916l7953L5572B30419b147E7050a22635f340
30140c38389J4525d1475A30869J37647f3273H925O8761J27718k1914b05535A5327
30128b35330j98620D711J10590b2301A64319c53212a45665C50779n3158G231e7371
30116d5147m3232B17515r063l0450b47276A30092K64682A10602C0521K98161r5176
30105B33506L3438G1872e829A07487j1716M62759B78696A36922L6769J2813a49083
30093G2275K57469c35796h5148L6109B8158K6837e2923o6294C1267L7910M5676
30082A14853K4654a07130j50526g5933c692j68323B9576J54434p3669a79282e622
30070a36183e4977D4008a44402K9048D402d09508a73772A36895J79456H0884J30903
30059B11787b3945E0630J60923j6119K83767f6638A15850j5943K12676a0934A67923
30047C58480M922M9908j50190g4289j52375R6210C59447G846c04853d1125A16804
30035f1274E0435K8239J14348J61209L1779l1345c6801A35347c3245j70738E5400
30023A81907n8992f4530b7117r709A37908F4455c5449D63811A35329m7133a10656
30011a71675B16589g6855k66238A85747A1580J27566D2969h081C79837j29577
30001B50260j03390M5519a0916B85772b03400F1950J46156J0559J4683h4355L9751
29990d4604A01848L24919A19299m742a60077A15602d6414A03736h6761B55261
29979a2444E47735B52347J70892k4735L166A67905J5994g8562C7519a2326F9647
29967E31423j65948C9430a34409A4670L31699m1688A26783h4845J2602b2058D6
29955A83925F8767e1351A27648a4396k50161M1372B60099I7788K3530J18601B0093
29943b368j2792D9339K50760j41066b745l09457J17241A93822L02507A21963L18775
29932D40738O5058E1174c07044p6663f8236m4717j66142C65f7459F5513d874B55755
29919g6152l8529b2062A94285b28419r4818Q7638A25044a20753n1280B97184A37371
29907D04740I1885f5951C27102R0351j58822J53832j14889j05021B0501J83919
29897B04420g1363C21730b1809r9991b9447F7971b83524N1369g4071A77002p8643
[...]
2990a457135J38569n19374K96270N1811R6546Q9932p0256j50179L58725j97673
2980a362764J78742k54440J6747K34862M8410l87291P3354O5667j16311K02415
2970a300609j47688j54116K34993K17858O7766m68122J75242q9783l9277J6768
2960a486968j88336K50988K40474r1896Q3527j59933J10461j83j07855N3699l34709
2949a630731J14827O7091N9515j90966L2480n707j00400K79690J8568j22260k34362
2938a712255L46364k69656N8484N5369K62468j67063J00706j27911J48908j29132
2928a433718K16760p6474j06992J07091J38665N792j52770P5944l61047K5976
2918a560773J88629M1836L429p9886R9575k46049K22860r6328R8177j92921J32514
2907a388937j26112K60428j75932m0276P5358j61002J04616r2676j0494J13940
2897a441087p5586j24569K12802J33763k08007n145l3963j51168M9555J36245
2887a507160L37993k94847o5232J39805r6906j44587j91175N6880J06520J07895
2877a550814M85733m00048J67126o025k99311j10444L1764J36316J70147J15417
2867a260139J34813m00723m2887L00740j85055n9792J6016J62747k06836k90491
2857a831607L76360J70557J67427k76523l2632k19550K6689K84011K1451n0047
2847a363864P1627n60069J90918L33561m04588J40520p9742K24285M836r6233
2837a538749r2111M09420k75769j01365k05259N26649K17185l4356K9243l31661
2827a396773j59807M93799j36434k87616J40363o4047L40597j35165j74720N1204
2817a328599J74732J28332j35794j43656R355j8230j35036J0956p60K11951K07462
2806a019287k81460m44050l66424Q94362l71709n8490k12846J03102N5834Q1609
2796a619359K27575k7469j16079K49351k67263K82727J37430m7909K08285k00021
2786a172732o0327k40999K21242P2829m2996p3850j62836R4793j86084N85294
2776i65666m70065P6359L7178K03001j32239J29843m44476N16814l018j17641
2766a169910N5842k12020j38994J13572O0230j33334P6786J62695k9775P4863
2756a140045P3171m01646q6775L54311K00196l21852K45981k03531R7599j80228
2746a362819K29502j08285l29438J67600L04734j21115k23931M5196l7980K43690
2736a192846J98730j325m30649K52503J75534m26665n3559L63380O794k96170
2726a404273R8041J88417K90838o23458J19675q0533m68031r2683M20913J11293
2716a439801l2336K34029p7111J2161j99666J70122n035K64177J32541j52174
2706a093093l52686J63715k8396k00380J11761K48225N9615k87231m2591P7447
2696a343614K6120l26565j1558K82483R785P5243k23738m9675J54731k64928p5296
2685a747012L69992R2673q9842L24484l40735j09964l2942J40941n1842L38643
2675a105604o11802j19879L78580J97497M4507K84251m38012K16101K74324q4962
2665i64999k88569J74131J09655j04520k25715p3165J25263k41107J40180j98993
2655a547839K38937k51155O4377J00947n3567k94397J85050K89734k53514L71898
2645a149529l58881j71580N06208j40724k30020O4887O3777K43749l37124L3019
2635a476218k48225K8592J73964m0139J99256j79462j87123R6774K22009J38493
2625a272079Q3257m59188j17333L68694q2604r2936L34230j23653R3357j6634
2615a284889k41488N5598m6585n9090K45628K30111j36731J13326J24429q7233
2605a086924p60481L39229M83461j55551O5512K20362l44060j9018k6055J70709
2595a112816k58367k26828L13430r9586J57596J8178l65545m0243Q3525L77911
2585a152745j2280P0907k6707r3309J95935j7054j90688L46608m87546J73255
2575a193624j89762K11630k82672k06856R7312K09337m0857J51041P9821m8964
2565a213594n7087m68938K76951M58495p5022m44963j66596m6483J29593m2311
2555a649955J90539l87256J51029M1218O9665K66167k3175R1163j92254k62710
2545a705569J1225O34175J61862n4693j82354m9136k04151L84998k94987J72608
2535a126022j9881l46348J02415j83702Q1356K38474M24189n84655j12175J28373
2525a397976k78831L57278j9253O3053k74697K25223J51217k62550N0141o5344
2515a451739J87576J79646O3021o6004k5674L93969l71681J1861j42229j82597
2505a403851J92086K89167q0544k79596r3208J78809Q9289l78723K0087J45630
2495a320854K85689O5475n77083O1880K85634M36929l57997r2771l26239J53725
2485a385612L0470J46346J24273O0176j67951j11017n70972L22279K51611R517
2475a290880J3040M1322o175L32955L330K106r7314J85651k64132l04891M25766
2464i59222k6348J09771k34586K13J286j6122J74680m08920l2750J0875J44791
2453a236332J28796l94369K06540L1776j65482m04650N06250q5398K63O576r9274
2442a505304J34505k30749J85316K11565m56842N63864J1027m65349L65635j53547
2432a339879j6325R6042m97636M05162j52532J28514K36436L0529o41269J92474
2422a558484K26493M139k00620R9626K7784P1852K04071J66052l52427J01707
2412a209807l51546K25609l66862J93361P40713j6878m79994J50342j56070J56684
2402a114448m03841p363M4631q0461q7417k44058L19872L55009O4785O050K2743
2391a124498L94447k74667j49363p7841k6905J36102p5744J90154K31759k59106
2381a035662j15962r84m0420m11987L82531K50913j30691o6256O960Q3206n1973
2370a130325j16208J31124n9204j99992O0477k3974L22819O0371l96027Q0990
2360a269949k64109L0552k66160J61369m70j10877M34801k64991L63207k06253
2350a392880q0658j49615L06589Q7803N4671k56608O713q263J78961l555R8202
2339a158640N9431k51419l57169K08297M03463l84501L24361M5781K57864j20941
2329i73473m4425Q837K35122n61228L48228j20276k33999K00919R2456k84499
2319a332338j69167J64568M37040m33353k03685J66901o8908K0141J06837J33937
2309a178027J07431K23105q8774l15512k37371l4560R8K18559j18865K11079l7792
2298a250629O7721J70183N3876j01000l74648M32020k96263J4368J03522N6023
2288a124827j23769L25476k76971p4043J82812K05970k33271J13200K3255j0296
2278i92464J86342m26998N01717k12275p5660n569P3104j95992L83482m91523
2268a255836K80689k2565j25697J16372Q0735M6280n48939J49779j05617J92073
2258a192726k41041k08849K73150J41590j40720l2430k360N5935K02000M11613
2248g33838l32767k83326L06719K11231k06877j15040L8103l10227L05849m54351
2238a574524J22137K99482O4049q5815J58009m20762L2248J97165j19299L36972
2228i90338l00643k14926K25301K4078L86774m62235k40251K81823l54117J92969
2218a451565K32145J988m76850O19975J16873K13995k55106k05173j81736J16768
2208a268686M3860L4069j15566N6910J62024j13364K03092N4823j4710J72342
2198g85206m69427J53272k7146k38648j42435K56339Q5959K8018j53891K99943
2188i93222k88417J75136R9829j18502k96870K48668e84727m45988q7965P6503
2178a042177O2947K92022n44613L46901j65273k6150l132k28327J49393J91344
2168i67065k54643K7985k00924O1453L33001k24191J96545k64586M9349K50173
2158i92903J88140l46654n7611Q3232r8577R717r8580j47619K95536Q4482R3920
2147i86917k31026M2589k51176L62022j95863J24277p8865j30561L1271K80321
2137a033928j67818O3038k90342L07492j86745J72404m7598p5079M0708J37809
2127a080059j09810J81486l12134j3701J39017O2243k15626K21006K56381k40936
2117a112133j73716M1603J52932J4125o1832j64043K00567l08127L85691j62308
2107a187241K03962k60282j5459N6951j2195k01997q774K03608p3004J72499K1451
2096a100481j35184l3563q0339K33253q9047j31848K11517r5163k52385m924N0793
2085a427371Q3935P3971k3579n9132k26664J87296L544N13815l63506j4471J61970
2074a090192k2558k9209k65105R3993K06745L42875n81631k14871j43465N35960
2064a167458N6499k38678J94911k78397J55574M9141M7248J10210R1391k644o82005
2053a664208N10348j47662N5069K8881N4283L704J64037j04879l28276J61442
2043a267261n2159N0072K25715K39919k27434r0240l00986M3707J85389L8631
2033a154647J73876k80443J26059k16152J32173o7217K27178j83138o2322L64035
2023i40598m474m73420K96923J69419k96150M11212m5610J47393k03558k19914
2013a158777M6797J43399Q3875k61395j0609K26655J27506k80991R2249l3627
2003a024918l22938K35779K21893J86009M608j1867j09981l08981O8480k07837
1993a269753J71024k05270J77066k07488K36455J88696j13886j87491L1631l01251
1983a480267k52652P45176K8104l17345l6528j07708j82227K09719K10348k02902
1973a386282j75619M25478J58885m15424K22849n2266k56923j62340L53480N2885
1963a235277k8208q3318N98268L2321m83827J23377R0592j66962j86333j64747
1953a504114j98958L22147K56062j84899O21J88523m0956j60593R0326J7650L5544
1942a178647P409o2971J66173p2537l16261P2841L09809R1772J94700J60429k92271
1931i19554j91301j01532Q1817Q3917K18922m9473K0579Q0166M6679l32213j24031
1920a186024J18165J45403J54134n10467K93465J17199j64749J05554k51463J33805
1910a044978m9968L34128j52898k29814J45804J15899l39022J22571q0601J72598
1900a006281l282J95236J75119k74120l65372k01812N59503k87810K34973j08076
1890a081922R6953J92898r7999k82926K12525j39062j76211r0984K18081m9402
1880a198049J53612n3021l4680M9962J87185J79052n77292j60878L05066J69438
1870i79605J1010M5260k46885l5985j27091K14702l7246P0302J79192j39677K77490
1859g68533n90201P5497L13951J20632q8395K6035j04171R8486l81891k20888
1849a519478M30382k30172J20328Q6213K41337N0661j11936l23691J33388K36188
1839h86780j51967l6245k16523K98666J85390p262J12643k02185l13819J9315
1829a198767J28529L7940K8129K00613N9228r7699K4144k32424n539j76037P5565
1818a156318J24075J0197k56957M5824l16685L18724K03476k28740P7525J12434
1808a066445r4424j08108K76873k6335n2207j2645P1171J4200K1153K41071k58215
1797i93911Q6679P3972j24938k01507k56991L89447p2265j64949J38245K8425
1787a097793N7559r0545K4555K0422j70421L32431k3261k82848p2806J67437k6629
1776a161899K36515o940L9184j73374K14100j17219r5711k8454r5093N2148o0601
1765a197344L74518J9217n09176O9856K32135J71098m88487M73868j52313Q893
1755i97735j93603M9320P7811j45169K15171j20080n1086J00692L43227J18031
1745f03421L3390l98254l10175L8463J34138L17875p24904K05807M11136p085
1735i03030N9358m66858J74475J12685j10355k51752L13406O2360K5491J99217
1725g85003L5338l33059j47030O7541J4019j14304Q9908K86915J9454l14776j19063
1714a300060K84315k26341K21081L79619l57531K9535N0040k34114k0208K17326
1704i56338K18329J03180j81472J07706M0744j04712k88232k02480L40499L77706
1694e45070l43243J13408k50720j25370J84012l8742l59042L51263J04995l61387
1684a269896J35056L63008j53352k00817J29448k49720J85505k52581K42863j28084
1674a198570p0787M23888j2442j47972k610j89531O9990M31896j32508l55154
1664a183800L00486k49495M0584K73862j62454m71636K72995K51983J52454j50330
1654i25351N5278n11240K93942K13996n63843M02592l57038K82814K0764K65177
1644h22909q1550k2146k58575M29324j41681J41872o89805J75643J94611M44213
1634f31003j78912k1134Q3987N218J51591J65695m37884m03992L01092d53521
1623i31164N2580j35252L4884K32859m77239j8795J78895j17419j37454K41961
1613a076144K36783j23478J11379j14464O9964Q2279q3649J02206j42303M15294
1603e22133j80157j4438o54983Q6500M84124j52480k05704K93067K06585n82007
1593a241626M30996k55557N1075K01296m48726K44138R8537k70118R1390L74796
1583g23799k74521j28914K68348k42362j83589k05191J86390L3617J53563K00288
1573i16170J65408j88208J07601l9910K94705k45034O4046K01399n77750K84820
1563h49093k43770K7836j20227K50974J28967l56815K22273j54468J72765Q4548
1553h37010m22651M27529k0377j87578L59651l34124l5021M24258j60007K58392
1543e26938J8995p17098k84885J53158P1633J89839j07082J71305l37664r6742
1533a465479M3687K88277M6057m2228J392K0585J06149J76130j94750r4399k04098
1522a318677L93591J87564l87440j00341J82392L91091Q2234m2000O3708K4006
1512e23872k06873l57468L3671q145K3817J90611J45627m32095M01611k43091
1502i76207k94109N39898J1639k39594k71071L03163j20818M17269m55435O1756
1492a023509l04214J61779J97283K3361K78756n2649j57691k8848j92368Q6498
1482a011602J20032N7562J57223K04596n22608k39446P5090J84839j59708L1280
1472a102742J03096J78914j87182j3877L04175l8381n0445J1052j7749P2356O8570
1461f72213m54975R3085l05602K144L46933L11690l6338L879j38494k67285L28289
1450g88887l16854K10449l5706K53340k90853k91075j15191l93L01797j88998
1440a262371L87712M242K0736k00589J23826o8947j09348P7694j33931k0898K28247
1429i53627O992k08790K94318J19287k64971j39944j36622K41539J42422P52K65252
1418f33392n69962J1154K1978n5067K14017P8060J97065O926q316n6779K691j39137
1406i30762K32442l47179K1210p7372r9064J76951N7698k08883O2684o9962K7397
1395a154840J4740Q0600J09592k97975M71593J7331L0326n3682K43089o6572o9764
1384f75562m8661m043n5240J03534j3781j16094j26038Q1313m38980m2972J55706
1373a180818L31725j45925J9691J14848j7519N4163K56080j66132k48053K48572
1363g33368l93892r4275L73765K17202k56237J05805k75424K95027j23807L274
1353h81930l00346e84671k37994O7542J02013N5111k67682j06487j24156K74437
1343h21887J13476n6002R1066j07749k27510M5443k47181K11644o5693O6998j76603
1332a173998J70424j33720J7423K8125P298J54864j58359j15844O383M73232J74108
1321e50064n49864K90274J41855l3996l8129j17652j21130o5910J38990K01556
1311g04070j01429k66985j12110R8157J88161J06180O4778j62047l49439K44823
1301i93981j33382J03775j26324J91987J50526m0947j44363K93462j7830L3832
1291f83245J6459m5723O470L2562k52047J60294j53572K94637k53829K8664k34661
1280a083991j6L1678J3773K8281M12824j44670j89142L53897m23408k47484K92099
1269i56159L78087J70573m39105L63002j59747j87598K79658k79491J88604k58955
1259i01131l44785j29379K16450K70386K6901K24152l29522J49859k94568K92741
1249h18896n3501j08760J90851j81667J80114n4293j58982r3758J75093J75184
1239g48615j53101o6608J09961n2083J78501m33374k85667j0328K91494K81700
1229h88120k60411J92916L8529J56448o5258j00005j54991J97816l83948J03538
1219a163486K62392j4455K32369p9433k52446J45678J46977j41189l21553M1965
1209a143181n7548M6661j16732J22242j6769m9165M45985m65255J84868m40391
1199a489285L04901n63J54385J1428j60060K90312j09499K17926m6621J67649
1189f59427K06056n84258k04311J25700J91284p328o7600k42435M55254Q8127
1179f98938o3823K7455Q6034P3634j4411l94814l62933K41587L40338n6314J65179
1168f57006l05165K51606J66460l53194M08479j29636j92849J03879l34869j12346
1158a154641K7139k24311K03249J86626n3506K73873r1073k87817l09121d81445
1147g02967l08548c93787m20136l73869L66733J58139j32338j30647P5700k99883
1137a150088k4640K48556Q9226M2274r9370k01109K81165J94921l89748j47228
1127a156041J53279J29262k90105j08923J70725j87695M56736r848M17644j24343
1117e49309k18243o668j51506K4789L2194k35111M1659J03254k33783K30961j55336
1106a117099M78339j06836j16782K97788q1320j03548M3092P0553k39578K97944
1096e77447l4224k19254j8573b18631k14021j87054k73508R911J14278j39502
1086i08527P1719J68254j27848K81739l3606j19645r6796j503j96044L3682J03086
1075h25489L80684k36055R4872k44559m5983K12846k58984J18301L85107k71083
1065f90343m7365L2820m39951l9121P3767K99778J42017K24040Q0444a24546k92191
1054d16737p18250L36511J9821l7985J40641l46190R8037j21669d70490q1336
1044e51826j65347j3292J25036J25804K24788k79440J62040k13197m28425J21980
1034h91879c93109l70259L855Q0213M3254k85242o7734J21023L60271N0881k82165
1023g39012L03064j05852k11525N0364J02020m52997J58937J17897J51268j37110
1013g62946l746o8577J90415j67563J41152L14373K0197O4951p2557J0144n22949
1002h57106J81291l61328K43654j62237j58611L88515K99635N1497j22817J79856
992c17651m53938n3162j42061L38393m97327N48775j22069j82337j32650M36849
982e77178l7460k3686m114P6111j71523k12972J12271L58444a89862n10390l01492
971a001744j37602M57012J39958j91309l71993M87572j11900k52676M4730K3984
961i13968L25482k00840P3799k26007J61751l2336J96189p2930j04518j29092
951i22470K49413l627P8384J27329k10245k66423K74386K11833r1143k85586j12754
940i50903K69138n9228j79838k89105j4195N6423K07004J40518K91387q6722l07617
929i23138Q4223L38351k97047K24544j64190o1384J01568l11491d95556k86586
919g82142j14676d08465j35518l24281j47078J73943K08486J72053k23129K5192
909f58797m7221c33741o82301L32928K84197J8664l346r1476j53957k06315j34538
898i69885L59405j28222j37260J86693j21149n9533m1467j03733L24587L34070
888c56494j64205p0701k76227Q5566k15910K23098J1418K81074b38728n62512
878h01240O6112J17810K0455l89792Q7156K98946R9235k73189k22118N72J98726
867g97327K82165k26761R0244N1152Q9098k2666a94673n10286Q7956n9414q6845
856g63262K25720k13289J13360J71045j80807m7731m0688j55081j78478P8252
846i90959J97898K96452m4356Q5179l00562K95664j76772j16162O2653J42624
836e48341K51542l39831j7926Q4327l43085K19860j30066J48217l05750J32691
826h48362J97630o2645l29335J63970Q0334k4076P7068j22274Q9871n4886o424
815h39129J61881k5049m05339L07694k11913K73466n4057r33o2203l4289K54794
804f35077r3869J64594j1673J05856n8546j11798Q9142p2334k05937J85778k1250
793f65114l38583c38093l36865j63820K60141L9684O6319j5903l7361m25451d58068
781g45236l7158R1370k78623Q8439J48370m84902K70691J75559K62278L718k05481
770g10975j1729J93812k89545K10742R229j11766J54633r9697K90532k50061J47956
759d66869l19957N5546K0924r6977m7158K65615m25438k04457M16476l2797L58847
748d76245K2911j79021L9917k25793K60728p5362k32778K90718b37652n43139
738g80791k85974L74703K31588j41842k52303b76809p7227k78854m9336r7685
728g79911N5397M4153k03608N6416d08530n42742J60696K37844l40462K81374
718f11820L6806N1898K275m323k87403J99636L1607k94058K13167J57441k64244
707g69018j6960o2023b80562q0251o16359M31335l09224j1888R2968c46028O8616
696b77412j14123J24582j37630m6560m75806K52084L22517k70781R0409e7329
685c62685k59578J87279j65258m6840m5077j75326L1474m0698K33214J05400L3681
674e04414J42861j98842P1576l24305J26205K68764a46962k97531l72106L63305
664d53294j47217R2992j17966J12441K08534k34396P9867j38506k15527j35647
654i48719L36792J27911n587j82619j69881J01621j97929b64762j98253j38782
644f01797k866M474N6621j35238b61906m37250J98341n2569Q4928j25135p4168
633f67759k20941J98943P3058q7288K23963a21497m48614j03139j86174J37528
623g21896n2132O6375K89435L842j80502j72901J87768j96602J48710j15063K56633
612d86333l3423k865M0389k34259K00172J18137k82285J21978k61826c12751j64165
601d76916k88042P060J60370J46712n2310O889k29341N0118b84111j67806k63449
590g15366J46882k54601j86326k8404J16456Q0665L48019g3849n0843o7463m68155
579f60310j57783J38426O2254J23862j18756N4360k71778K94333J61728l51677
569g25341m1482J79727l54396J48524j74023J87489L0697j93373k61029J64768
559a038439R8848L54483k11804j45548J16524k95257K22802K17989k65674k35337
549a181413P3652e53134J99768q7822p1259l49186K51660k3830K78882l50973
539g05894L3246O0347k75213J71710N7809J35329j58566J91644b21276l23023
529e44299M9528J0232Q2672l83118K63118P4486j80825K95030p7615k16572J4059
518f13304O922k4696j80263j66027c79988j95838l82115k06374N33416k55940
508h86839P0259c82683k08504j92393R7404J80978l17695J85745K20772J5693
498d00683J55054n9515l10081m1391K10675J91327m51673K20258l75117J4488
488h46658c91862k07028J67522J57635i1814K7033j41972j50282j33434J04360
478c86109j02695j53736R3726J223k88124k3027k1958K87880K41746k50625j97177
467g98876l7094K50538K05348l6580l10377M7691m0106o4904P5957J77348k82597
456h13652j04647M13454o6700K46869L2577l60754b56130k33771j81156K59338
446d11719m01430J34349k9223j17566m9898k2555R8337q1984O1025L05439j3182
435e28407n6234n9763j70561K22922J66901L1173k67081J57512l35214Q9343M8546
424g00863K72807p9877J7589n3289p3773k32585b57316l11322j24526P2058K29493
413c91613j59950o0281J00422K37891o14153K33877K05762k00728m7881J83771
403e12883L8932j32362j52261L132c69599j26942K18940q8572k78693J3993J14393
392e16480J45380J01064k81530m7584l60284K93415K74204j37761N2546j02460
382e79490K73973a46956k78797r8535O1001r764O5571Q4514k20875k53647c68043
370h04263L12071J58442j11497J62639l5300Q123J00843j81151k12279K03599
360c98773J88957l96085j63488K13487K01626m9296j013q847k5863J19262a48068
348C0027g2699k74092j02312l40469K03549b62220J7068k23202j3824L7063O7398
337c77717k38054a86092j6638q10082M12401O2047k21196O3150Q8386k5739J2578
326f21185Q2205J04906N6034j3948k2472j09531J21722j63303k854k58670q1710
315i08806K84746N5121j35303N858r6580c85476j05647K24613m47379J14984Q2176
304e16729L4551M7423K12875j18728j42056J4794j16920J01210j776a76105m2596
293b18701o60850c97840o6345R7975R1846p964l26983J06643a94986m85747K06757
282d73976a94359j68259j87986k63619P3659R7269j52740K30255l7103b94576
271a93756j78760j03612J10956k45663Q736j0981k82264L43672k3780l5766j4010
260f25228o466i1161j6557j52168k63563j24628M5428j68628K31699j3902N0967
249e02513o8661m5815k79697K54150k34092L70424Q6311K0663n8170K23799m31789
238f65390L3837O0914J45202P0977k842q414L0502P7444q9263j67910J72487Q3108
226b59348R132j08371k22507j07987K56415M5205N1808l47106k59321K84512K3248
215f34320b20638k6343K902J4825J01091r8801j07037J26522k61993o7888p0931
204f08291a72517N2307q7849k65559L2584l11771c74781J74165k58470L8975P5672
193c44439j4433n8410k96328J9483J00283b10922q5709r2032j54493K56841k88972
182e75287k03359M7549J56244Q9685q0238J94235M7217k41940J7802j12878k69108
171i30078c34748N060j18636O5444l41717J1478L32091O0501M0112k51166b24579
159f8827l81360n8712j5040M5770n9183J95881j94475O7115j33350J23313j03074
148e81942a51670k08468K5101k527k15040L0593J43295m6469j57072a26137m27207
137e53344J01773M3746i0036c8985l67508k0230L1979j47433K13396o4053J2678
126c80156j24549R6687j65655m9552J21000j30810P0885P4943b10735e4422j19070
115a73492r5159m6864k8429R0011j1938J23662j47247j99178j93212j1908J71961
104e21793l8790j20535K83650p768J08396r6441J40478K9971R8415l39967j2194
93d76578K2192M2186J71134m0297k75350K4343j8211R4621J11780a20415k12235
82c32650j78964J42402J03748j99968K11625R1535k04925r8551M3023J68731j47361
71d01355m9763j0359n8626K16407j08637N0521j02061k6608N3709k20759L8613
60f18918O6744K62668k06157o68P4208P6191f5722j40185p1811k63480p7374l839
48f22411j03565J24505M3485Q4695K26047j65028j1285a48007m26378o36j1297
37e86318l8925K11596j22751K3090K42433m77102N5358J3467k5289J76860J02138
26d25443k46529J27568r5692J24132J0505Q8166j76119J88821a20535k31336R9424
15b52447q076k42865J6527a08977l63374n3453J40907J08216r9464M6030r37J0470
3c20582j17487J00896q0796
0d17969
##END NTUPLES=NMR SPECTRUM
##END=
